# CIF file generated by openbabel 2.4.90, see http://openbabel.sf.net
data_I
_chemical_name_common 'VESTA_phase_1'
_cell_length_a 12.772
_cell_length_b 15.1
_cell_length_c 19.445
_cell_angle_alpha 90.08
_cell_angle_beta 90.028
_cell_angle_gamma 89.993
_space_group_name_H-M_alt 'P 1'
_space_group_name_Hall 'P 1'
loop_
    _symmetry_equiv_pos_as_xyz
    x,y,z
loop_
    _atom_site_label
    _atom_site_type_symbol
    _atom_site_fract_x
    _atom_site_fract_y
    _atom_site_fract_z
    _atom_site_occupancy
    Cd0     Cd   0.67959   0.76798   0.32955   1.000
    Cd1     Cd   0.32050   0.26776   0.17048   1.000
    Cd2     Cd   0.82011   0.23227   0.82897   1.000
    Cd3     Cd   0.17999   0.73200   0.67104   1.000
    Cd4     Cd   0.32037   0.23206   0.67044   1.000
    Cd5     Cd   0.67946   0.73229   0.82951   1.000
    Cd6     Cd   0.17986   0.76777   0.17100   1.000
    Cd7     Cd   0.81997   0.26804   0.32894   1.000
    H8      H    0.31413   0.05185   0.15490   1.000
    H9      H    0.42256   0.91906   0.18543   1.000
    H10     H    0.61962   0.09169   0.30592   1.000
    H11     H    0.50567   0.21913   0.26894   1.000
    H12     H    0.37687   0.15275   0.03591   1.000
    H13     H    0.50338   0.15068   0.93602   1.000
    H14     H    0.59325   0.41579   0.99142   1.000
    H15     H    0.45960   0.40934   0.08700   1.000
    H16     H    0.68601   0.55210   0.34500   1.000
    H17     H    0.57739   0.41926   0.31456   1.000
    H18     H    0.38040   0.59161   0.19411   1.000
    H19     H    0.49449   0.71910   0.23102   1.000
    H20     H    0.62325   0.65289   0.46374   1.000
    H21     H    0.49675   0.65067   0.56365   1.000
    H22     H    0.40653   0.91575   0.50892   1.000
    H23     H    0.54016   0.90943   0.41287   1.000
    H24     H    0.12361   0.84670   0.53678   1.000
    H25     H    0.99639   0.84921   0.43719   1.000
    H26     H    0.90673   0.58396   0.49160   1.000
    H27     H    0.00000   0.59012   0.58755   1.000
    H28     H    0.18651   0.94775   0.65523   1.000
    H29     H    0.07797   0.08077   0.68520   1.000
    H30     H    0.88014   0.90896   0.80540   1.000
    H31     H    0.99438   0.78127   0.76904   1.000
    H32     H    0.87658   0.34701   0.96355   1.000
    H33     H    0.00000   0.34931   0.06322   1.000
    H34     H    0.09305   0.08398   0.00817   1.000
    H35     H    0.95921   0.09033   0.91223   1.000
    H36     H    0.81358   0.44807   0.84484   1.000
    H37     H    0.92196   0.58103   0.81474   1.000
    H38     H    0.11977   0.40881   0.69448   1.000
    H39     H    0.00000   0.28122   0.73090   1.000
    H40     H    0.68584   0.94819   0.84508   1.000
    H41     H    0.57742   0.08098   0.81456   1.000
    H42     H    0.38035   0.90836   0.69407   1.000
    H43     H    0.49430   0.78091   0.73104   1.000
    H44     H    0.62306   0.84731   0.96406   1.000
    H45     H    0.49656   0.84938   0.06395   1.000
    H46     H    0.40676   0.58424   0.00859   1.000
    H47     H    0.54039   0.59070   0.91261   1.000
    H48     H    0.31396   0.44795   0.65499   1.000
    H49     H    0.42259   0.58078   0.68543   1.000
    H50     H    0.61957   0.40842   0.80587   1.000
    H51     H    0.50547   0.28093   0.76896   1.000
    H52     H    0.37670   0.34715   0.53623   1.000
    H53     H    0.50321   0.34936   0.43632   1.000
    H54     H    0.59347   0.08431   0.49109   1.000
    H55     H    0.45983   0.09063   0.58713   1.000
    H56     H    0.87637   0.15333   0.46318   1.000
    H57     H    0.00000   0.15082   0.56276   1.000
    H58     H    0.09322   0.41610   0.50836   1.000
    H59     H    0.95923   0.40994   0.41244   1.000
    H60     H    0.81346   0.05229   0.34476   1.000
    H61     H    0.92200   0.91927   0.31477   1.000
    H62     H    0.11983   0.09108   0.19459   1.000
    H63     H    0.00000   0.21876   0.23094   1.000
    H64     H    0.12343   0.65306   0.03641   1.000
    H65     H    0.99639   0.65076   0.93674   1.000
    H66     H    0.90686   0.91605   0.99180   1.000
    H67     H    0.00000   0.90970   0.08778   1.000
    H68     H    0.18639   0.55197   0.15514   1.000
    H69     H    0.07801   0.41901   0.18524   1.000
    H70     H    0.88019   0.59123   0.30549   1.000
    H71     H    0.99425   0.71882   0.26903   1.000
    C72     C    0.38351   0.05813   0.18717   1.000
    C73     C    0.44390   0.98457   0.20444   1.000
    C74     C    0.53082   0.99611   0.24741   1.000
    C75     C    0.55375   0.08136   0.27128   1.000
    C76     C    0.49069   0.15177   0.25136   1.000
    C77     C    0.59545   0.91853   0.27146   1.000
    C78     C    0.42660   0.20939   0.02410   1.000
    C79     C    0.49609   0.20859   0.96908   1.000
    C80     C    0.55905   0.28286   0.95757   1.000
    C81     C    0.54550   0.35705   0.99978   1.000
    C82     C    0.47329   0.35334   0.05311   1.000
    C83     C    0.64541   0.28178   0.90480   1.000
    C84     C    0.61660   0.55831   0.31276   1.000
    C85     C    0.55612   0.48474   0.29555   1.000
    C86     C    0.46918   0.49619   0.25260   1.000
    C87     C    0.44628   0.58136   0.22873   1.000
    C88     C    0.50944   0.65180   0.24860   1.000
    C89     C    0.40448   0.41855   0.22857   1.000
    C90     C    0.57345   0.70948   0.47566   1.000
    C91     C    0.50396   0.70861   0.53074   1.000
    C92     C    0.44092   0.78283   0.54243   1.000
    C93     C    0.45437   0.85705   0.50038   1.000
    C94     C    0.52658   0.85342   0.44704   1.000
    C95     C    0.35457   0.78170   0.59520   1.000
    C96     C    0.07373   0.79015   0.52489   1.000
    C97     C    0.00387   0.79117   0.46997   1.000
    C98     C    0.94085   0.71696   0.45825   1.000
    C99     C    0.95455   0.64265   0.50019   1.000
    C100    C    0.02704   0.64618   0.55344   1.000
    C101    C    0.85427   0.71819   0.40557   1.000
    C102    C    0.11701   0.94171   0.68735   1.000
    C103    C    0.05657   0.00000   0.70432   1.000
    C104    C    0.96937   0.00000   0.74701   1.000
    C105    C    0.94625   0.91905   0.77098   1.000
    C106    C    0.00946   0.84852   0.75141   1.000
    C107    C    0.90465   0.08186   0.77072   1.000
    C108    C    0.92637   0.29039   0.97533   1.000
    C109    C    0.99614   0.29129   0.03029   1.000
    C110    C    0.05907   0.21701   0.04187   1.000
    C111    C    0.04530   0.14274   0.99970   1.000
    C112    C    0.97291   0.14638   0.94646   1.000
    C113    C    0.14562   0.21812   0.09459   1.000
    C114    C    0.88305   0.44192   0.81268   1.000
    C115    C    0.94338   0.51557   0.79565   1.000
    C116    C    0.00000   0.50417   0.75290   1.000
    C117    C    0.05369   0.41902   0.72893   1.000
    C118    C    0.99059   0.34853   0.74857   1.000
    C119    C    0.09518   0.58187   0.72918   1.000
    C120    C    0.61646   0.94191   0.81282   1.000
    C121    C    0.55609   0.00000   0.79554   1.000
    C122    C    0.46914   0.00000   0.75259   1.000
    C123    C    0.44623   0.91869   0.72869   1.000
    C124    C    0.50928   0.84827   0.74862   1.000
    C125    C    0.40453   0.08152   0.72850   1.000
    C126    C    0.57335   0.79067   0.97584   1.000
    C127    C    0.50385   0.79146   0.03090   1.000
    C128    C    0.44094   0.71718   0.04240   1.000
    C129    C    0.45448   0.64299   0.00000   1.000
    C130    C    0.52670   0.64670   0.94680   1.000
    C131    C    0.35456   0.71826   0.09519   1.000
    C132    C    0.38337   0.44173   0.68722   1.000
    C133    C    0.44386   0.51530   0.70444   1.000
    C134    C    0.53080   0.50385   0.74739   1.000
    C135    C    0.55369   0.41867   0.77125   1.000
    C136    C    0.49053   0.34824   0.75138   1.000
    C137    C    0.59549   0.58148   0.77143   1.000
    C138    C    0.42651   0.29056   0.52430   1.000
    C139    C    0.49601   0.29143   0.46924   1.000
    C140    C    0.55905   0.21721   0.45756   1.000
    C141    C    0.54562   0.14301   0.49962   1.000
    C142    C    0.47340   0.14663   0.55296   1.000
    C143    C    0.64540   0.21834   0.40479   1.000
    C144    C    0.92624   0.20989   0.47507   1.000
    C145    C    0.99611   0.20886   0.52990   1.000
    C146    C    0.05912   0.28309   0.54172   1.000
    C147    C    0.04540   0.35740   0.49970   1.000
    C148    C    0.97291   0.35387   0.44654   1.000
    C149    C    0.14570   0.28184   0.59440   1.000
    C150    C    0.88296   0.05834   0.31264   1.000
    C151    C    0.94340   0.98465   0.29567   1.000
    C152    C    0.00000   0.99591   0.25298   1.000
    C153    C    0.05372   0.08098   0.22901   1.000
    C154    C    0.99051   0.15152   0.24857   1.000
    C155    C    0.09532   0.91817   0.22927   1.000
    C156    C    0.07362   0.70967   0.02464   1.000
    C157    C    0.00385   0.70876   0.96968   1.000
    C158    C    0.94090   0.78305   0.95810   1.000
    C159    C    0.95463   0.85730   0.00025   1.000
    C160    C    0.02703   0.85366   0.05353   1.000
    C161    C    0.85434   0.78192   0.90539   1.000
    C162    C    0.11692   0.55812   0.18730   1.000
    C163    C    0.05659   0.48447   0.20434   1.000
    C164    C    0.96940   0.49587   0.24705   1.000
    C165    C    0.94627   0.58102   0.27104   1.000
    C166    C    0.00937   0.65151   0.25140   1.000
    C167    C    0.90478   0.41817   0.27079   1.000
    N168    N    0.40654   0.14060   0.20986   1.000
    N169    N    0.41617   0.27999   0.06629   1.000
    N170    N    0.59363   0.64071   0.29006   1.000
    N171    N    0.58378   0.78011   0.43369   1.000
    N172    N    0.08431   0.71945   0.56678   1.000
    N173    N    0.09387   0.85941   0.71017   1.000
    N174    N    0.91576   0.21971   0.93326   1.000
    N175    N    0.90622   0.35954   0.78986   1.000
    N176    N    0.59344   0.85944   0.79012   1.000
    N177    N    0.58379   0.72006   0.93370   1.000
    N178    N    0.40634   0.35933   0.70992   1.000
    N179    N    0.41619   0.21994   0.56630   1.000
    N180    N    0.91565   0.28060   0.43319   1.000
    N181    N    0.90610   0.14063   0.28981   1.000
    N182    N    0.08421   0.78034   0.06673   1.000
    N183    N    0.09374   0.64050   0.21012   1.000
    O184    O    0.58204   0.84379   0.24207   1.000
    O185    O    0.65708   0.93011   0.32199   1.000
    O186    O    0.65012   0.21485   0.86405   1.000
    O187    O    0.71109   0.34417   0.90538   1.000
    O188    O    0.41795   0.34387   0.25789   1.000
    O189    O    0.34278   0.43003   0.17809   1.000
    O190    O    0.34997   0.71481   0.63586   1.000
    O191    O    0.28883   0.84405   0.59470   1.000
    O192    O    0.84869   0.78580   0.36568   1.000
    O193    O    0.78939   0.65525   0.40534   1.000
    O194    O    0.91994   0.15681   0.74226   1.000
    O195    O    0.84105   0.07020   0.82011   1.000
    O196    O    0.15121   0.28563   0.13472   1.000
    O197    O    0.21053   0.15518   0.09450   1.000
    O198    O    0.08012   0.65684   0.75780   1.000
    O199    O    0.15856   0.57011   0.67960   1.000
    O200    O    0.41793   0.15625   0.75792   1.000
    O201    O    0.34288   0.06993   0.67801   1.000
    O202    O    0.34986   0.78518   0.13595   1.000
    O203    O    0.28889   0.65587   0.09462   1.000
    O204    O    0.58202   0.65616   0.74211   1.000
    O205    O    0.65719   0.57000   0.82191   1.000
    O206    O    0.65000   0.28522   0.36412   1.000
    O207    O    0.71115   0.15599   0.40527   1.000
    O208    O    0.15129   0.21422   0.63426   1.000
    O209    O    0.21056   0.34480   0.59460   1.000
    O210    O    0.08003   0.84323   0.25774   1.000
    O211    O    0.15891   0.92983   0.17987   1.000
    O212    O    0.84877   0.71443   0.86524   1.000
    O213    O    0.78941   0.84485   0.90541   1.000
    O214    O    0.91986   0.34320   0.24216   1.000
    O215    O    0.84137   0.42993   0.32031   1.000
loop_
    _geom_bond_atom_site_label_1
    _geom_bond_atom_site_label_2
    _geom_bond_distance
    _geom_bond_site_symmetry_2
    _ccdc_geom_bond_type
    C129   H46       1.08956      .   S
    C129   C128      1.40072      .   S
    C129   C130      1.38754  1_554   S
    C159   C160      1.38945  1_655   S
    C159   C158      1.39889  1_554   S
    C159   H66       1.08920  1_554   S
    H34    C111      1.08924  1_554   S
    C78    H12       1.09012      .   S
    C78    N169      1.35090      .   S
    C78    C79       1.39043  1_554   S
    C156   H64       1.08993      .   S
    C156   N182      1.35060      .   S
    C156   C157      1.39122  1_554   S
    C109   C110      1.39834  1_655   S
    C109   H33       1.08548  1_655   S
    C109   C108      1.39114  1_554   S
    C127   C128      1.39821      .   S
    C127   H45       1.08855      .   S
    C127   C126      1.39109  1_554   S
    C110   C113      1.50730      .   S
    C110   C111      1.39941  1_554   S
    C128   C131      1.50729      .   S
    C82    N169      1.35118      .   S
    C82    H15       1.08549      .   S
    C82    C81       1.38937  1_554   S
    C160   N182      1.35111      .   S
    C160   H67       1.13027      .   S
    N169   Cd1       2.37386      .   S
    N182   Cd6       2.37444      .   S
    O197   C113      1.26112      .   S
    C113   O196      1.28491      .   S
    O203   C131      1.26160      .   S
    C131   O202      1.28483      .   S
    O196   Cd1       2.28696      .   S
    O202   Cd6       2.29129      .   S
    H8     C72       1.08964      .   S
    H68    C162      1.08973      .   S
    Cd1    O189      2.47102      .   S
    Cd1    N168      2.34159      .   S
    Cd1    O188      2.39833      .   S
    Cd6    O211      2.46742      .   S
    Cd6    N183      2.34253      .   S
    Cd6    O210      2.40105      .   S
    O189   C89       1.27054      .   S
    O211   C155      1.27070      .   S
    H69    C163      1.09041      .   S
    H9     C73       1.09012      .   S
    C72    C73       1.39359  1_545   S
    C72    N168      1.35287      .   S
    C162   C163      1.39344      .   S
    C162   N183      1.35291      .   S
    H18    C87       1.08856      .   S
    H62    C153      1.08864      .   S
    C163   C164      1.39993  1_455   S
    C73    C74       1.39993      .   S
    N168   C76       1.35413      .   S
    N183   C166      1.35411      .   S
    C89    C86       1.50792      .   S
    C89    O188      1.27585      .   S
    C87    C88       1.38914      .   S
    C87    C86       1.39880      .   S
    C153   C154      1.38918  1_455   S
    C153   C152      1.52975  1_545   S
    C155   C152      1.75254      .   S
    C155   O210      1.27552      .   S
    H63    C154      1.07902  1_455   S
    H19    C88       1.08953      .   S
    O184   C77       1.27577      .   S
    O184   Cd0       2.39987      .   S
    O214   C167      1.27547      .   S
    O214   Cd7       2.40226      .   S
    C164   C167      1.50777      .   S
    C164   C165      1.39872      .   S
    C74    C75       1.39883  1_565   S
    C74    C77       1.50771      .   S
    C154   N181      1.35416      .   S
    C88    N170      1.35414      .   S
    C76    H11       1.08954      .   S
    C76    C75       1.38918      .   S
    C166   H71       1.08942  1_455   S
    C166   C165      1.38920  1_455   S
    C86    C85       1.39994      .   S
    C152   C151      1.11429  1_455   S
    C167   O215      1.27078      .   S
    C165   H70       1.08867      .   S
    C75    H10       1.08856      .   S
    C77    O185      1.27064      .   S
    N181   C150      1.35288      .   S
    N181   Cd7       2.34231      .   S
    N170   C84       1.35286      .   S
    N170   Cd0       2.34175      .   S
    C85    C84       1.39355      .   S
    C85    H17       1.09033      .   S
    C151   C150      1.39346  1_565   S
    C151   H61       1.09011      .   S
    C150   H60       1.08962      .   S
    C84    H16       1.08965      .   S
    O215   Cd7       2.46571      .   S
    O185   Cd0       2.46950      .   S
    Cd7    O206      2.29102      .   S
    Cd7    N180      2.37387      .   S
    Cd0    O192      2.28661      .   S
    Cd0    N171      2.37333      .   S
    O206   C143      1.28497      .   S
    O192   C101      1.28492      .   S
    C143   O207      1.26150      .   S
    C143   C140      1.50688      .   S
    O193   C101      1.26105      .   S
    C101   C98       1.50711      .   S
    H59    C148      1.09019      .   S
    H23    C94       1.09022      .   S
    N180   C148      1.35107      .   S
    N180   C144      1.35055      .   S
    N171   C94       1.35116      .   S
    N171   C90       1.35034      .   S
    H53    C139      1.08858      .   S
    H25    C97       1.08850  1_655   S
    C148   C147      1.38834  1_655   S
    C94    C93       1.38932      .   S
    C140   C139      1.39825      .   S
    C140   C141      1.39881      .   S
    C98    C97       1.39829  1_655   S
    C98    C99       1.39894      .   S
    H56    C144      1.08989      .   S
    H20    C90       1.08995      .   S
    C139   C138      1.39116      .   S
    C97    C96       1.39136      .   S
    C144   C145      1.39010      .   S
    C90    C91       1.39141      .   S
    H54    C141      1.08906      .   S
    H26    C99       1.08913      .   S
    C141   C142      1.38937      .   S
    C147   H58       1.08932      .   S
    C147   C146      1.39994      .   S
    C99    C100      1.38958  1_655   S
    C93    H22       1.08908      .   S
    C93    C92       1.39885      .   S
    C138   H52       1.09002      .   S
    C138   N179      1.35059      .   S
    C96    H24       1.08991      .   S
    C96    N172      1.35054      .   S
    C145   C146      1.39857  1_655   S
    C145   H57       1.08644  1_655   S
    C91    C92       1.39826      .   S
    C91    H21       1.08856      .   S
    C146   C149      1.50712      .   S
    C92    C95       1.50684      .   S
    C142   N179      1.35114      .   S
    C142   H55       1.09016      .   S
    C100   N172      1.35106      .   S
    C100   H27       1.13041      .   S
    N179   Cd4       2.37340      .   S
    N172   Cd3       2.37403      .   S
    C149   O209      1.26103      .   S
    C149   O208      1.28481      .   S
    O191   C95       1.26152      .   S
    C95    O190      1.28494      .   S
    O208   Cd4       2.28671      .   S
    O190   Cd3       2.29113      .   S
    H48    C132      1.08954      .   S
    H28    C102      1.08960      .   S
    Cd4    O201      2.46950      .   S
    Cd4    N178      2.34173      .   S
    Cd4    O200      2.39991      .   S
    Cd3    O199      2.46572      .   S
    Cd3    N173      2.34226      .   S
    Cd3    O198      2.40188      .   S
    O201   C125      1.27017      .   S
    O199   C119      1.27140      .   S
    H29    C103      1.30454      .   S
    H49    C133      1.09035      .   S
    C132   C133      1.39356      .   S
    C132   N178      1.35288      .   S
    C102   C103      1.21606  1_565   S
    C102   N173      1.35285      .   S
    H42    C123      1.08845      .   S
    H38    C117      1.08857      .   S
    C103   C104      1.38938  1_455   S
    C133   C134      1.39992      .   S
    N178   C136      1.35415      .   S
    N173   C106      1.35412      .   S
    C125   C122      1.55449      .   S
    C125   O200      1.27599      .   S
    C123   C124      1.38919      .   S
    C123   C122      1.34443  1_565   S
    C117   C118      1.38921  1_455   S
    C117   C116      1.52940      .   S
    C119   C116      1.75209      .   S
    C119   O198      1.27534      .   S
    H39    C118      1.07915  1_455   S
    H43    C124      1.08952      .   S
    O204   C137      1.27591      .   S
    O204   Cd5       2.39820      .   S
    O194   C107      1.27553      .   S
    O194   Cd2       2.40068      .   S
    C104   C107      1.55642      .   S
    C104   C105      1.34171  1_545   S
    C134   C135      1.39877      .   S
    C134   C137      1.50792      .   S
    C118   N175      1.35416      .   S
    C124   N176      1.35417      .   S
    C136   H51       1.08954      .   S
    C136   C135      1.38913      .   S
    C106   H31       1.08941  1_455   S
    C106   C105      1.38922  1_455   S
    C122   C121      1.38918      .   S
    C116   C115      1.11521  1_455   S
    C107   O195      1.27063      .   S
    C105   H30       1.08863      .   S
    C135   H50       1.08856      .   S
    C137   O205      1.27053      .   S
    N175   C114      1.35288      .   S
    N175   Cd2       2.34245      .   S
    N176   C120      1.35289      .   S
    N176   Cd5       2.34162      .   S
    C121   C120      1.21543  1_545   S
    C121   H41       1.30579      .   S
    C115   C114      1.39341      .   S
    C115   H37       1.09036      .   S
    C114   H36       1.08970      .   S
    C120   H40       1.08953      .   S
    O195   Cd2       2.46759      .   S
    O205   Cd5       2.47128      .   S
    Cd2    O186      2.29138      .   S
    Cd2    N174      2.37474      .   S
    Cd5    O212      2.28696      .   S
    Cd5    N177      2.37387      .   S
    O186   C83       1.28479      .   S
    O212   C161      1.28488      .   S
    C83    O187      1.26159      .   S
    C83    C80       1.50694      .   S
    C161   O213      1.26113      .   S
    C161   C158      1.50731      .   S
    H35    C112      1.09013      .   S
    H47    C130      1.08911      .   S
    N174   C112      1.35106      .   S
    N174   C108      1.35056      .   S
    N177   C130      1.35085      .   S
    N177   C126      1.35038      .   S
    H13    C79       1.08863      .   S
    H65    C157      1.08851  1_655   S
    C112   C111      1.38878  1_655   S
    C80    C79       1.39832      .   S
    C80    C81       1.39858      .   S
    C158   C157      1.39835  1_655   S
    H32    C108      1.08993      .   S
    H44    C126      1.08996      .   S
    H14    C81       1.08894      .   S
