# CIF file generated by openbabel 2.4.90, see http://openbabel.sf.net
data_I
_chemical_name_common ''
_cell_length_a 18.743
_cell_length_b 18.765
_cell_length_c 18.762
_cell_angle_alpha 59.98
_cell_angle_beta 60.083
_cell_angle_gamma 60.109
_space_group_name_H-M_alt 'P 1'
_space_group_name_Hall 'P 1'
loop_
    _symmetry_equiv_pos_as_xyz
    x,y,z
loop_
    _atom_site_label
    _atom_site_type_symbol
    _atom_site_fract_x
    _atom_site_fract_y
    _atom_site_fract_z
    _atom_site_occupancy
    C0      C    0.57001   0.56977   0.83672   1.000
    C1      C    0.56968   0.56998   0.02361   1.000
    C2      C    0.83695   0.02311   0.57000   1.000
    C3      C    0.02404   0.83674   0.56946   1.000
    C4      C    0.56979   0.83693   0.02358   1.000
    C5      C    0.83688   0.56996   0.56960   1.000
    C6      C    0.02389   0.56976   0.56960   1.000
    C7      C    0.56973   0.02339   0.57008   1.000
    C8      C    0.56998   0.83677   0.56948   1.000
    C9      C    0.83687   0.57037   0.02334   1.000
    C10     C    0.02372   0.56981   0.83672   1.000
    C11     C    0.42996   0.43018   0.16327   1.000
    C12     C    0.43035   0.42991   0.97640   1.000
    C13     C    0.97595   0.16322   0.43052   1.000
    C14     C    0.16304   0.97684   0.42973   1.000
    C15     C    0.16309   0.42966   0.97669   1.000
    C16     C    0.42998   0.16320   0.43056   1.000
    C17     C    0.43028   0.97659   0.42990   1.000
    C18     C    0.97608   0.43018   0.43045   1.000
    C19     C    0.16310   0.43002   0.43030   1.000
    C20     C    0.43011   0.16302   0.97643   1.000
    C21     C    0.43025   0.97602   0.16318   1.000
