# CIF file generated by openbabel 2.4.90, see http://openbabel.sf.net
data_I
_chemical_name_common ''
_cell_length_a 12.811
_cell_length_b 14.28
_cell_length_c 14.19
_cell_angle_alpha 78.507
_cell_angle_beta 63.467
_cell_angle_gamma 63.527
_space_group_name_H-M_alt 'P 1'
_space_group_name_Hall 'P 1'
loop_
    _symmetry_equiv_pos_as_xyz
    x,y,z
loop_
    _atom_site_label
    _atom_site_type_symbol
    _atom_site_fract_x
    _atom_site_fract_y
    _atom_site_fract_z
    _atom_site_occupancy
    Zr0     Zr   0.18181   0.46218   0.99905   1.000
    Zr1     Zr   0.64576   0.53558   0.99972   1.000
    Zr2     Zr   0.43048   0.50046   0.96329   1.000
    Zr3     Zr   0.89433   0.50032   0.03792   1.000
    Zr4     Zr   0.64580   0.99874   0.53687   1.000
    Zr5     Zr   0.18192   0.99854   0.46233   1.000
    Zr6     Zr   0.89463   0.03709   0.50030   1.000
    Zr7     Zr   0.43034   0.96368   0.50070   1.000
    N8      N    0.53803   0.74869   0.25102   1.000
    O9      O    0.40218   0.84579   0.33567   1.000
    O10     O    0.58507   0.66346   0.15332   1.000
    O11     O    0.49100   0.83451   0.34818   1.000
    O12     O    0.67394   0.65215   0.16573   1.000
    N13     N    0.03884   0.24879   0.24912   1.000
    O14     O    0.08938   0.33409   0.15191   1.000
    O15     O    0.98789   0.16404   0.34673   1.000
    O16     O    0.98767   0.34670   0.16469   1.000
    O17     O    0.08953   0.15135   0.33421   1.000
    N18     N    0.53708   0.75061   0.75116   1.000
    O19     O    0.49831   0.65339   0.83610   1.000
    O20     O    0.49820   0.83598   0.65393   1.000
    O21     O    0.57661   0.84710   0.66542   1.000
    O22     O    0.57663   0.66457   0.84774   1.000
    N23     N    0.53809   0.25066   0.74884   1.000
    O24     O    0.67408   0.16515   0.65232   1.000
    O25     O    0.49107   0.34800   0.83435   1.000
    O26     O    0.58515   0.15261   0.66415   1.000
    O27     O    0.40219   0.33544   0.84600   1.000
    N28     N    0.03790   0.58679   0.91303   1.000
    O29     O    0.07388   0.55564   0.93454   1.000
    N30     N    0.20094   0.08845   0.58540   1.000
    O31     O    0.25829   0.05725   0.56422   1.000
    N32     N    0.20112   0.58442   0.08910   1.000
    O33     O    0.25846   0.56343   0.05765   1.000
    N34     N    0.03712   0.91373   0.58820   1.000
    O35     O    0.07332   0.93493   0.55673   1.000
    N36     N    0.53899   0.41166   0.08631   1.000
    O37     O    0.51186   0.43386   0.05555   1.000
    N38     N    0.87540   0.91324   0.41214   1.000
    O39     O    0.81800   0.93461   0.44332   1.000
    N40     N    0.87546   0.41221   0.91327   1.000
    O41     O    0.81804   0.44305   0.93488   1.000
    N42     N    0.53919   0.08579   0.41210   1.000
    O43     O    0.51198   0.05527   0.43425   1.000
loop_
    _geom_bond_atom_site_label_1
    _geom_bond_atom_site_label_2
    _geom_bond_distance
    _geom_bond_site_symmetry_2
    _ccdc_geom_bond_type
    N8     O9        1.74326      .   S
    Zr5    O9        2.73753      .   S
    N8     O10       1.74304      .   S
    Zr1    O10       2.73794  1_556   S
    N8     O11       1.74323      .   S
    Zr7    O11       2.73871      .   S
    N8     O12       1.74332      .   S
    Zr3    O12       2.73785      .   S
    N13    O14       1.74396      .   S
    Zr0    O14       2.74002  1_556   S
    N13    O15       1.74293  1_455   S
    Zr6    O15       2.73737      .   S
    N13    O16       1.74262  1_455   S
    Zr3    O16       2.73662      .   S
    N13    O17       1.74392      .   S
    Zr5    O17       2.73983  1_565   S
    N18    O19       1.74350      .   S
    Zr2    O19       2.73894      .   S
    N18    O20       1.74368      .   S
    Zr7    O20       2.73940      .   S
    N18    O21       1.74331      .   S
    Zr4    O21       2.73762      .   S
    N18    O22       1.74313      .   S
    Zr1    O22       2.73811      .   S
    N23    O24       1.74362      .   S
    Zr6    O24       2.73872      .   S
    N23    O25       1.74351      .   S
    Zr2    O25       2.73888      .   S
    N23    O26       1.74330      .   S
    Zr4    O26       2.73846  1_565   S
    N23    O27       1.74332      .   S
    Zr0    O27       2.73777      .   S
    N28    O29       0.62629      .   S
    Zr0    O29       1.87886      .   S
    N30    O31       0.62674      .   S
    Zr7    O31       1.88023  1_565   S
    N32    O33       0.62670      .   S
    Zr2    O33       1.88010  1_556   S
    N34    O35       0.62643      .   S
    Zr5    O35       1.87928      .   S
    N36    O37       0.62758      .   S
    Zr2    O37       1.88275  1_556   S
    N38    O39       0.62667      .   S
    Zr4    O39       1.88000      .   S
    N40    O41       0.62661      .   S
    Zr1    O41       1.87982      .   S
    N42    O43       0.62717      .   S
    Zr7    O43       1.88152  1_565   S
