# CIF file generated by openbabel 2.4.90, see http://openbabel.sf.net
data_I
_chemical_name_common ''
_cell_length_a 15.541
_cell_length_b 15.536
_cell_length_c 15.533
_cell_angle_alpha 76.13
_cell_angle_beta 76.134
_cell_angle_gamma 76.139
_space_group_name_H-M_alt 'P 1'
_space_group_name_Hall 'P 1'
loop_
    _symmetry_equiv_pos_as_xyz
    x,y,z
loop_
    _atom_site_label
    _atom_site_type_symbol
    _atom_site_fract_x
    _atom_site_fract_y
    _atom_site_fract_z
    _atom_site_occupancy
    C0      C    0.06563   0.32752   0.51477   1.000
    C1      C    0.51496   0.06548   0.32752   1.000
    C2      C    0.32758   0.51463   0.06539   1.000
    C3      C    0.67242   0.93457   0.48538   1.000
    C4      C    0.93436   0.48517   0.67249   1.000
    C5      C    0.48506   0.67246   0.93459   1.000
    C6      C    0.93436   0.67247   0.48525   1.000
    C7      C    0.48504   0.93451   0.67249   1.000
    C8      C    0.67242   0.48536   0.93463   1.000
    C9      C    0.32758   0.06543   0.51464   1.000
    C10     C    0.06563   0.51482   0.32750   1.000
    C11     C    0.51493   0.32753   0.06542   1.000
