# CIF file generated by openbabel 2.4.90, see http://openbabel.sf.net
data_I
_chemical_name_common ''
_cell_length_a 19.592
_cell_length_b 14.263
_cell_length_c 14.27
_cell_angle_alpha 102.889
_cell_angle_beta 103.382
_cell_angle_gamma 103.151
_space_group_name_H-M_alt 'P 1'
_space_group_name_Hall 'P 1'
loop_
    _symmetry_equiv_pos_as_xyz
    x,y,z
loop_
    _atom_site_label
    _atom_site_type_symbol
    _atom_site_fract_x
    _atom_site_fract_y
    _atom_site_fract_z
    _atom_site_occupancy
    Zn0     Zn   0.95312   0.26753   0.83478   1.000
    Zn1     Zn   0.29782   0.16186   0.72856   1.000
    Zn2     Zn   0.79783   0.16184   0.72857   1.000
    Zn3     Zn   0.04696   0.73248   0.16519   1.000
    Zn4     Zn   0.54696   0.73248   0.16519   1.000
    Zn5     Zn   0.20224   0.83809   0.27138   1.000
    Zn6     Zn   0.70224   0.83810   0.27139   1.000
    H7      H    0.23754   0.64328   0.74037   1.000
    H8      H    0.73754   0.64326   0.74034   1.000
    H9      H    0.48933   0.81044   0.93555   1.000
    H10     H    0.98934   0.81042   0.93555   1.000
    H11     H    0.21725   0.45004   0.72679   1.000
    H12     H    0.71725   0.45003   0.72677   1.000
    H13     H    0.01674   0.99641   0.92350   1.000
    H14     H    0.51674   0.99643   0.92356   1.000
    H15     H    0.16385   0.59427   0.98158   1.000
    H16     H    0.66383   0.59431   0.98229   1.000
    H17     H    0.23029   0.32217   0.96496   1.000
    H18     H    0.73033   0.32211   0.96397   1.000
    H19     H    0.03608   0.48651   0.91242   1.000
    H20     H    0.53608   0.48655   0.91301   1.000
    H21     H    0.09893   0.22678   0.89979   1.000
    H22     H    0.59897   0.22673   0.89904   1.000
    H23     H    0.01226   0.25861   0.35382   1.000
    H24     H    0.51227   0.25861   0.35380   1.000
    H25     H    0.25977   0.06632   0.18665   1.000
    H26     H    0.75978   0.06634   0.18660   1.000
    H27     H    0.03304   0.27033   0.54674   1.000
    H28     H    0.53305   0.27033   0.54672   1.000
    H29     H    0.23301   0.07705   0.00019   1.000
    H30     H    0.73301   0.07705   0.00020   1.000
    H31     H    0.08461   0.01606   0.40376   1.000
    Zn32    Zn   0.45311   0.26754   0.83477   1.000
    H33     H    0.58461   0.01626   0.40377   1.000
    H34     H    0.02163   0.03731   0.67832   1.000
    H35     H    0.52164   0.03703   0.67830   1.000
    H36     H    0.21303   0.08390   0.50952   1.000
    H37     H    0.71303   0.08407   0.50954   1.000
    H38     H    0.15357   0.10054   0.77170   1.000
    H39     H    0.65359   0.10028   0.77168   1.000
    H40     H    0.26252   0.35672   0.25968   1.000
    H41     H    0.76252   0.35672   0.25965   1.000
    H42     H    0.01072   0.18956   0.06446   1.000
    H43     H    0.51072   0.18955   0.06446   1.000
    H44     H    0.28282   0.54995   0.27320   1.000
    H45     H    0.78281   0.54995   0.27318   1.000
    H46     H    0.48333   0.00356   0.07647   1.000
    H47     H    0.98334   0.00357   0.07646   1.000
    H48     H    0.33626   0.40569   0.01689   1.000
    H49     H    0.83625   0.40571   0.01756   1.000
    H50     H    0.26971   0.67798   0.03708   1.000
    H51     H    0.76975   0.67793   0.03614   1.000
    H52     H    0.46401   0.51343   0.08627   1.000
    H53     H    0.96401   0.51346   0.08684   1.000
    H54     H    0.40107   0.77335   0.10174   1.000
    H55     H    0.90111   0.77330   0.10105   1.000
    H56     H    0.48778   0.74147   0.64616   1.000
    H57     H    0.98779   0.74148   0.64615   1.000
    H58     H    0.24026   0.93370   0.81330   1.000
    H59     H    0.74027   0.93371   0.81331   1.000
    H60     H    0.46701   0.72972   0.45320   1.000
    H61     H    0.96702   0.72972   0.45322   1.000
    H62     H    0.26703   0.92299   0.99976   1.000
    H63     H    0.76703   0.92300   0.99977   1.000
    H64     H    0.41546   0.98332   0.59610   1.000
    H65     H    0.91547   0.98324   0.59610   1.000
    H66     H    0.47840   0.96361   0.32171   1.000
    H67     H    0.97841   0.96372   0.32172   1.000
    H68     H    0.28703   0.91552   0.49040   1.000
    H69     H    0.78704   0.91546   0.49040   1.000
    H70     H    0.34646   0.90018   0.22832   1.000
    H71     H    0.84647   0.90023   0.22833   1.000
    C72     C    0.38793   0.77189   0.81270   1.000
    C73     C    0.88793   0.77188   0.81278   1.000
    C74     C    0.33550   0.48386   0.78411   1.000
    C75     C    0.83549   0.48385   0.78414   1.000
    C76     C    0.34761   0.38590   0.78672   1.000
    C77     C    0.84760   0.38589   0.78674   1.000
    C78     C    0.28156   0.60967   0.75972   1.000
    C79     C    0.78156   0.60965   0.75972   1.000
    C80     C    0.40465   0.04515   0.78908   1.000
    C81     C    0.90467   0.04515   0.78910   1.000
    C82     C    0.45421   0.83525   0.88128   1.000
    C83     C    0.95422   0.83523   0.88120   1.000
    C84     C    0.27049   0.50681   0.75296   1.000
    C85     C    0.77048   0.50680   0.75296   1.000
    C86     C    0.21090   0.46913   0.97994   1.000
    C87     C    0.71091   0.46911   0.97980   1.000
    C88     C    0.41343   0.94926   0.80492   1.000
    C89     C    0.91344   0.94926   0.80494   1.000
    C90     C    0.35544   0.66568   0.79651   1.000
    C91     C    0.85544   0.66567   0.79652   1.000
    C92     C    0.46875   0.93493   0.87560   1.000
    C93     C    0.96876   0.93491   0.87560   1.000
    C94     C    0.15362   0.51326   0.96410   1.000
    C95     C    0.65362   0.51328   0.96441   1.000
    C96     C    0.19009   0.36347   0.95581   1.000
    C97     C    0.69012   0.36344   0.95527   1.000
    C98     C    0.08107   0.45356   0.92588   1.000
    C99     C    0.58107   0.45357   0.92618   1.000
    S100    S    0.83942   0.17794   0.40759   1.000
    S101    S    0.15570   0.16271   0.25847   1.000
    S102    S    0.65571   0.16272   0.25840   1.000
    S103    S    0.08940   0.41061   0.17829   1.000
    C104    C    0.11632   0.30860   0.91844   1.000
    C105    C    0.61635   0.30857   0.91797   1.000
    C106    C    0.36171   0.18771   0.22525   1.000
    C107    C    0.86172   0.18771   0.22526   1.000
    C108    C    0.41482   0.21399   0.51290   1.000
    C109    C    0.91483   0.21399   0.51294   1.000
    C110    C    0.40292   0.21005   0.61059   1.000
    C111    C    0.90293   0.21005   0.61061   1.000
    C112    C    0.46836   0.23934   0.38738   1.000
    C113    C    0.96838   0.23934   0.38700   1.000
    C114    C    0.34588   0.20878   0.95120   1.000
    C115    C    0.84589   0.20877   0.95124   1.000
    C116    C    0.29519   0.11989   0.16178   1.000
    C117    C    0.79520   0.11989   0.16180   1.000
    C118    C    0.47970   0.24509   0.49006   1.000
    C119    C    0.97972   0.24509   0.49008   1.000
    C120    C    0.03930   0.01993   0.53034   1.000
    C121    C    0.53931   0.01992   0.53033   1.000
    C122    C    0.33669   0.19454   0.04747   1.000
    C123    C    0.83670   0.19453   0.04748   1.000
    C124    C    0.39438   0.20347   0.33144   1.000
    C125    C    0.89439   0.20348   0.33145   1.000
    C126    C    0.28098   0.12490   0.06187   1.000
    C127    C    0.78098   0.12490   0.06180   1.000
    C128    C    0.09576   0.03435   0.48494   1.000
    C129    C    0.59576   0.03443   0.48494   1.000
    C130    C    0.06118   0.04495   0.63609   1.000
    C131    C    0.56119   0.04478   0.63608   1.000
    C132    C    0.16867   0.07169   0.54353   1.000
    C133    C    0.66867   0.07179   0.54350   1.000
    C134    C    0.13524   0.08129   0.68982   1.000
    C135    C    0.63525   0.08115   0.68981   1.000
    C136    C    0.11212   0.22811   0.18723   1.000
    C137    C    0.61213   0.22811   0.18724   1.000
    C138    C    0.16458   0.51612   0.21578   1.000
    C139    C    0.66457   0.51613   0.21581   1.000
    C140    C    0.15248   0.61410   0.21319   1.000
    C141    C    0.65247   0.61410   0.21320   1.000
    C142    C    0.21850   0.39033   0.24028   1.000
    C143    C    0.71850   0.39033   0.24020   1.000
    C144    C    0.09541   0.95486   0.21090   1.000
    C145    C    0.59542   0.95486   0.21094   1.000
    C146    C    0.04584   0.16476   0.11873   1.000
    C147    C    0.54585   0.16475   0.11870   1.000
    C148    C    0.22958   0.49318   0.24700   1.000
    C149    C    0.72958   0.49318   0.24700   1.000
    C150    C    0.28915   0.53092   0.02030   1.000
    C151    C    0.78917   0.53091   0.02018   1.000
    C152    C    0.08663   0.05075   0.19510   1.000
    C153    C    0.58664   0.05075   0.19511   1.000
    C154    C    0.14462   0.33432   0.20347   1.000
    C155    C    0.64462   0.33432   0.20347   1.000
    C156    C    0.03130   0.06508   0.12439   1.000
    C157    C    0.53131   0.06508   0.12440   1.000
    C158    C    0.34646   0.48673   0.03521   1.000
    C159    C    0.84646   0.48674   0.03550   1.000
    C160    C    0.30993   0.63662   0.04500   1.000
    C161    C    0.80996   0.63659   0.04478   1.000
    C162    C    0.41901   0.54643   0.07344   1.000
    C163    C    0.91901   0.54644   0.07373   1.000
    C164    C    0.38371   0.69149   0.08250   1.000
    C165    C    0.88374   0.69146   0.08200   1.000
    C166    C    0.13833   0.81232   0.77471   1.000
    C167    C    0.63834   0.81232   0.77472   1.000
    C168    C    0.08524   0.78599   0.48702   1.000
    C169    C    0.58525   0.78601   0.48703   1.000
    C170    C    0.09714   0.78992   0.38936   1.000
    C171    C    0.59714   0.78994   0.38937   1.000
    C172    C    0.03168   0.76071   0.61257   1.000
    C173    C    0.53169   0.76071   0.61258   1.000
    C174    C    0.15415   0.79125   0.04872   1.000
    C175    C    0.65416   0.79125   0.04873   1.000
    C176    C    0.20484   0.88014   0.83817   1.000
    C177    C    0.70485   0.88015   0.83818   1.000
    C178    C    0.02035   0.75494   0.50988   1.000
    C179    C    0.52036   0.75494   0.50900   1.000
    C180    C    0.46075   0.98018   0.46964   1.000
    C181    C    0.96076   0.98022   0.46965   1.000
    C182    C    0.16335   0.80551   0.95249   1.000
    C183    C    0.66336   0.80550   0.95250   1.000
    C184    C    0.10566   0.79655   0.66851   1.000
    C185    C    0.60567   0.79655   0.66852   1.000
    C186    C    0.21906   0.87514   0.93809   1.000
    C187    C    0.71907   0.87515   0.93810   1.000
    C188    C    0.40430   0.96539   0.51502   1.000
    C189    C    0.90431   0.96534   0.51502   1.000
    C190    C    0.43886   0.95558   0.36391   1.000
    C191    C    0.93886   0.95562   0.36392   1.000
    C192    C    0.33139   0.92801   0.45642   1.000
    C193    C    0.83140   0.92799   0.45640   1.000
    C194    C    0.36480   0.91913   0.31018   1.000
    C195    C    0.86481   0.91919   0.31019   1.000
    S196    S    0.34436   0.83730   0.74153   1.000
    S197    S    0.84436   0.83730   0.74156   1.000
    S198    S    0.41067   0.58938   0.82160   1.000
    S199    S    0.91066   0.58938   0.82160   1.000
    S200    S    0.40572   0.25779   0.15970   1.000
    S201    S    0.90574   0.25777   0.15970   1.000
    S202    S    0.33941   0.17793   0.40758   1.000
    S203    S    0.58939   0.41061   0.17833   1.000
    S204    S    0.09431   0.74227   0.84026   1.000
    S205    S    0.59432   0.74226   0.84027   1.000
    S206    S    0.16064   0.82203   0.59237   1.000
    S207    S    0.66064   0.82205   0.59238   1.000
    N208    N    0.06195   0.35216   0.90291   1.000
    N209    N    0.56196   0.35216   0.90286   1.000
    N210    N    0.18882   0.09520   0.64500   1.000
    N211    N    0.68883   0.09515   0.64500   1.000
    N212    N    0.43811   0.64787   0.09716   1.000
    N213    N    0.93812   0.64786   0.09711   1.000
    N214    N    0.31122   0.90486   0.35497   1.000
    N215    N    0.81124   0.90484   0.35490   1.000
    O216    O    0.45884   0.12411   0.83624   1.000
    O217    O    0.95886   0.12410   0.83625   1.000
    O218    O    0.41487   0.38679   0.81487   1.000
    O219    O    0.91486   0.38677   0.81487   1.000
    O220    O    0.29161   0.30957   0.76097   1.000
    O221    O    0.79161   0.30956   0.76098   1.000
    O222    O    0.34311   0.04132   0.73071   1.000
    O223    O    0.84312   0.04132   0.73075   1.000
    O224    O    0.29194   0.16074   0.87200   1.000
    O225    O    0.79194   0.16074   0.87211   1.000
    O226    O    0.33570   0.18129   0.60936   1.000
    O227    O    0.83571   0.18129   0.60937   1.000
    O228    O    0.45900   0.23520   0.68698   1.000
    O229    O    0.95900   0.23520   0.68699   1.000
    O230    O    0.40748   0.26658   0.95505   1.000
    O231    O    0.90749   0.26654   0.95505   1.000
    O232    O    0.04122   0.87591   0.16375   1.000
    O233    O    0.54123   0.87591   0.16377   1.000
    O234    O    0.08522   0.61323   0.18507   1.000
    O235    O    0.58521   0.61323   0.18507   1.000
    O236    O    0.20848   0.69042   0.23897   1.000
    O237    O    0.70847   0.69042   0.23898   1.000
    O238    O    0.15695   0.95868   0.26929   1.000
    O239    O    0.65696   0.95869   0.26931   1.000
    O240    O    0.20810   0.83926   0.12786   1.000
    O241    O    0.70810   0.83928   0.12787   1.000
    O242    O    0.16437   0.81867   0.39059   1.000
    O243    O    0.66437   0.81868   0.39060   1.000
    O244    O    0.04107   0.76480   0.31297   1.000
    O245    O    0.54107   0.76481   0.31298   1.000
    O246    O    0.09255   0.73348   0.04490   1.000
    O247    O    0.59256   0.73346   0.04491   1.000
loop_
    _geom_bond_atom_site_label_1
    _geom_bond_atom_site_label_2
    _geom_bond_distance
    _geom_bond_site_symmetry_2
    _ccdc_geom_bond_type
    H29    C126      1.08669      .   S
    H30    C127      1.08619      .   S
    H48    C158      1.08645      .   S
    H49    C159      1.08645      .   S
    C151   C159      1.40512      .   S
    C151   C161      1.40698      .   S
    C151   C87       1.48630  1_554   S
    C150   C158      1.40511      .   S
    C150   C160      1.40721      .   S
    C150   C86       1.48629  1_554   S
    C158   C162      1.38786      .   S
    C159   C163      1.38784      .   S
    H51    C161      1.08737      .   S
    H50    C160      1.08712      .   S
    C161   C165      1.38858      .   S
    O246   C174      1.27890      .   S
    O246   Zn3       2.11179      .   S
    O247   C175      1.27895      .   S
    O247   Zn4       2.11170      .   S
    C160   C164      1.38865      .   S
    C122   C126      1.38629      .   S
    C122   S200      1.73366      .   S
    C122   C114      1.47763  1_554   S
    C123   C127      1.38567      .   S
    C123   S201      1.73363      .   S
    C123   C115      1.47717  1_554   S
    C174   O240      1.27852      .   S
    C174   C182      1.47711  1_554   S
    C175   O241      1.27849      .   S
    C175   C183      1.47712  1_554   S
    C127   C117      1.41050      .   S
    C126   C116      1.40926      .   S
    H43    C147      1.08816      .   S
    H42    C146      1.08850      .   S
    C162   H52       1.08864      .   S
    C162   N212      1.35069      .   S
    C163   H53       1.08866      .   S
    C163   N213      1.35070      .   S
    H47    C156      1.08644  1_655   S
    H46    C157      1.08661      .   S
    C165   N213      1.35038      .   S
    C165   H55       1.08960      .   S
    C164   N212      1.35032      .   S
    C164   H54       1.08967      .   S
    N213   Zn3       2.07219  1_655   S
    N212   Zn4       2.07240      .   S
    C147   C157      1.40961      .   S
    C147   C137      1.39401      .   S
    C146   C156      1.40944      .   S
    C146   C136      1.39382      .   S
    C156   C152      1.38617      .   S
    C157   C153      1.38614      .   S
    O240   Zn5       2.08118      .   S
    O241   Zn6       2.08116      .   S
    S201   C107      1.73662      .   S
    S200   C106      1.73659      .   S
    C116   H25       1.08852      .   S
    C116   C106      1.39409      .   S
    C117   H26       1.08785      .   S
    C117   C107      1.39406      .   S
    O232   Zn3       2.07862      .   S
    O232   C144      1.27871      .   S
    O233   Zn4       2.07855      .   S
    O233   C145      1.27877      .   S
    Zn3    O234      2.05730      .   S
    Zn3    O244      2.09186      .   S
    Zn4    O235      2.05719      .   S
    Zn4    O245      2.09204      .   S
    S103   C154      1.73591      .   S
    S103   C138      1.72857      .   S
    S203   C155      1.73591      .   S
    S203   C139      1.72857      .   S
    O235   C141      1.28186      .   S
    O234   C140      1.28184      .   S
    C136   C154      1.44567      .   S
    C136   S101      1.73671      .   S
    C137   C155      1.44569      .   S
    C137   S102      1.73600      .   S
    C152   C144      1.47571  1_545   S
    C152   S101      1.73355      .   S
    C153   C145      1.47582  1_545   S
    C153   S102      1.73341      .   S
    C155   C143      1.39429      .   S
    C154   C142      1.39430      .   S
    C144   O238      1.27890      .   S
    C145   O239      1.27877      .   S
    C140   C138      1.47651      .   S
    C140   O236      1.27089      .   S
    C141   C139      1.47651      .   S
    C141   O237      1.27089      .   S
    C138   C148      1.38542      .   S
    C139   C149      1.38540      .   S
    C106   C124      1.44570      .   S
    C107   C125      1.44569      .   S
    H70    C194      1.08967      .   S
    H71    C195      1.08967      .   S
    O236   Zn5       2.09142      .   S
    O237   Zn6       2.09142      .   S
    C143   C149      1.41083      .   S
    C143   H41       1.08966      .   S
    C142   C148      1.41101      .   S
    C142   H40       1.08949      .   S
    C148   H44       1.08780      .   S
    C149   H45       1.08781      .   S
    O238   Zn5       2.10993      .   S
    O239   Zn6       2.10984      .   S
    Zn5    N214      2.06836      .   S
    Zn5    O242      2.05476      .   S
    Zn6    N215      2.06811      .   S
    Zn6    O243      2.05483      .   S
    C194   N214      1.35026      .   S
    C194   C190      1.38825      .   S
    C195   N215      1.34949      .   S
    C195   C191      1.38824      .   S
    O244   C170      1.27112      .   S
    O245   C171      1.27110      .   S
    H66    C190      1.08734      .   S
    H67    C191      1.08737      .   S
    C124   C112      1.39457      .   S
    C124   S202      1.73563      .   S
    C125   C113      1.39318      .   S
    C125   S100      1.73567      .   S
    H24    C112      1.08953      .   S
    H23    C113      1.08541  1_455   S
    N215   C193      1.35107      .   S
    N214   C192      1.35039      .   S
    C190   C180      1.40686      .   S
    C191   C181      1.40687      .   S
    C113   C119      1.41647      .   S
    C112   C118      1.41082      .   S
    C170   O242      1.28196      .   S
    C170   C168      1.47611      .   S
    C171   O243      1.28194      .   S
    C171   C169      1.47610      .   S
    H31    C128      1.08621      .   S
    H33    C129      1.08614      .   S
    S202   C108      1.72841      .   S
    S100   C109      1.72866      .   S
    H60    C179      1.08239      .   S
    H61    C178      1.08759  1_655   S
    C193   H69       1.08888      .   S
    C193   C189      1.38773      .   S
    C192   H68       1.08865      .   S
    C192   C188      1.38764      .   S
    C180   C188      1.40480      .   S
    C180   C121      1.48565  1_565   S
    C181   C189      1.40474      .   S
    C181   C120      1.48541  1_665   S
    C129   C121      1.40471      .   S
    C129   C133      1.38749      .   S
    C128   C120      1.40475      .   S
    C128   C132      1.38762      .   S
    C168   C178      1.38537      .   S
    C168   S206      1.72862      .   S
    C169   C179      1.37881      .   S
    C169   S207      1.72862      .   S
    C118   C108      1.38521      .   S
    C118   H28       1.08784      .   S
    C119   C109      1.38538      .   S
    C119   H27       1.08761  1_655   S
    C179   C173      1.42348      .   S
    H36    C132      1.08870      .   S
    H37    C133      1.08828      .   S
    C178   C172      1.41091      .   S
    C108   C110      1.47654      .   S
    C109   C111      1.47627      .   S
    C189   H65       1.08506      .   S
    C188   H64       1.08504      .   S
    C121   C131      1.40692      .   S
    C120   C130      1.40679      .   S
    C133   N211      1.35089      .   S
    C132   N210      1.35036      .   S
    S206   C184      1.73564      .   S
    S207   C185      1.73561      .   S
    O226   C110      1.28191      .   S
    O226   Zn1       2.05476      .   S
    O227   C111      1.28190      .   S
    O227   Zn2       2.05482      .   S
    C110   O228      1.27111      .   S
    C111   O229      1.27102      .   S
    C172   H57       1.08926  1_455   S
    C172   C184      1.39453      .   S
    C173   H56       1.08950      .   S
    C173   C185      1.39455      .   S
    C131   H35       1.08735      .   S
    C131   C135      1.38828      .   S
    C130   H34       1.08739      .   S
    C130   C134      1.38828      .   S
    N210   C134      1.35028      .   S
    N210   Zn1       2.06827      .   S
    N211   C135      1.35025      .   S
    N211   Zn2       2.06830      .   S
    C184   C166      1.44578      .   S
    C185   C167      1.44579      .   S
    O228   Zn32      2.09202      .   S
    O229   Zn0       2.09200      .   S
    C135   H39       1.08964      .   S
    C134   H38       1.08967      .   S
    H12    C85       1.08780      .   S
    H11    C84       1.08782      .   S
    Zn1    O222      2.10940      .   S
    Zn1    O220      2.09169      .   S
    Zn1    O224      2.07993      .   S
    Zn2    O223      2.10929      .   S
    Zn2    O221      2.09179      .   S
    Zn2    O225      2.08134      .   S
    O222   C80       1.27876      .   S
    O223   C81       1.27870      .   S
    H8     C79       1.08952      .   S
    H7     C78       1.08949      .   S
    S196   C88       1.73360      .   S
    S196   C72       1.73619      .   S
    S197   C89       1.73359      .   S
    S197   C73       1.73671      .   S
    C85    C79       1.41102      .   S
    C85    C75       1.38539      .   S
    C84    C78       1.41105      .   S
    C84    C74       1.38537      .   S
    C78    C90       1.39431      .   S
    C79    C91       1.39428      .   S
    O220   C76       1.27085      .   S
    O221   C77       1.27085      .   S
    C166   C176      1.39404      .   S
    C166   S204      1.73651      .   S
    C167   C177      1.39403      .   S
    C167   S205      1.73657      .   S
    C74    C76       1.47654      .   S
    C74    S198      1.72855      .   S
    C75    C77       1.47654      .   S
    C75    S199      1.72861      .   S
    C76    O218      1.28190      .   S
    C77    O219      1.28189      .   S
    C80    C88       1.47583  1_545   S
    C80    O216      1.27877      .   S
    C81    C89       1.47586  1_545   S
    C81    O217      1.27877      .   S
    C90    C72       1.44585      .   S
    C90    S198      1.73590      .   S
    C91    C73       1.44569      .   S
    C91    S199      1.73578      .   S
    C88    C92       1.38592      .   S
    C89    C93       1.38582      .   S
    C72    C82       1.39417      .   S
    C73    C83       1.39342      .   S
    H58    C176      1.08849      .   S
    H59    C177      1.08851      .   S
    O218   Zn32      2.05714      .   S
    O219   Zn0       2.05721      .   S
    Zn32   O216      2.07862      .   S
    Zn32   N209      2.07243      .   S
    Zn32   O230      2.11203      .   S
    Zn0    O217      2.07871      .   S
    Zn0    N208      2.07222  1_655   S
    Zn0    O231      2.11193      .   S
    C176   C186      1.40937      .   S
    C177   C187      1.40939      .   S
    S204   C182      1.73370      .   S
    S205   C183      1.73366      .   S
    O224   C114      1.27897      .   S
    O225   C115      1.27846      .   S
    C92    C82       1.40957      .   S
    C92    H14       1.08670      .   S
    C93    C83       1.40922      .   S
    C93    H13       1.08633  1_655   S
    C83    H10       1.08926      .   S
    C82    H9        1.08844      .   S
    H22    C105      1.08967      .   S
    H21    C104      1.08968      .   S
    N209   C105      1.35032      .   S
    N209   C99       1.35071      .   S
    N208   C104      1.35031      .   S
    N208   C98       1.35072      .   S
    H19    C98       1.08866      .   S
    H20    C99       1.08865      .   S
    C105   C97       1.38859      .   S
    C104   C96       1.38859      .   S
    C98    C94       1.38783      .   S
    C99    C95       1.38785      .   S
    C186   C182      1.38625      .   S
    C186   H62       1.08665      .   S
    C187   C183      1.38628      .   S
    C187   H63       1.08663      .   S
    C114   O230      1.27882      .   S
    C115   O231      1.27894      .   S
    C97    H18       1.08734      .   S
    C97    C87       1.40700      .   S
    C96    H17       1.08735      .   S
    C96    C86       1.40698      .   S
    C94    C86       1.40513      .   S
    C94    H15       1.08646      .   S
    C95    C87       1.40511      .   S
    C95    H16       1.08646      .   S
    Zn32   Zn1       2.93006      .   S
    Zn0    Zn2       2.93015      .   S
    Zn3    Zn5       2.92971      .   S
    Zn4    Zn6       2.92976      .   S
