# CIF file generated by openbabel 2.4.90, see http://openbabel.sf.net
data_I
_chemical_name_common ''
_cell_length_a 23.722
_cell_length_b 13.826
_cell_length_c 21.392
_cell_angle_alpha 89.955
_cell_angle_beta 89.997
_cell_angle_gamma 90.003
_space_group_name_H-M_alt 'P 1'
_space_group_name_Hall 'P 1'
loop_
    _symmetry_equiv_pos_as_xyz
    x,y,z
loop_
    _atom_site_label
    _atom_site_type_symbol
    _atom_site_fract_x
    _atom_site_fract_y
    _atom_site_fract_z
    _atom_site_occupancy
    N0      N    0.25002   0.60101   0.05909   1.000
    N1      N    0.75003   0.60065   0.05897   1.000
    N2      N    0.24993   0.39870   0.94113   1.000
    N3      N    0.24978   0.89895   0.55889   1.000
    N4      N    0.74994   0.39962   0.94066   1.000
    N5      N    0.50003   0.23334   0.69409   1.000
    N6      N    0.75019   0.10099   0.44109   1.000
    N7      N    0.99993   0.23339   0.69410   1.000
    N8      N    0.49996   0.76659   0.30586   1.000
    N9      N    0.99993   0.73387   0.80645   1.000
    N10     N    0.50015   0.26616   0.19353   1.000
    N11     N    0.25019   0.10073   0.44085   1.000
    N12     N    0.50005   0.73379   0.80643   1.000
    N13     N    0.74978   0.89920   0.55913   1.000
    N14     N    0.99999   0.26609   0.19352   1.000
    N15     N    0.00003   0.76655   0.30586   1.000
    Zr16    Zr   0.99998   0.99998   0.49999   1.000
    O17     O    0.99996   0.88085   0.62971   1.000
    O18     O    0.92511   0.05152   0.47021   1.000
    O19     O    0.07506   0.05143   0.47015   1.000
    O20     O    0.99999   0.11911   0.37026   1.000
    O21     O    0.99996   0.10285   0.57350   1.000
    O22     O    0.00001   0.89709   0.42647   1.000
    O23     O    0.07486   0.94843   0.52977   1.000
    O24     O    0.92491   0.94852   0.52983   1.000
    Zr25    Zr   0.99998   0.50000   0.99998   1.000
    O26     O    0.99999   0.39682   0.07318   1.000
    O27     O    0.99996   0.38070   0.87051   1.000
    O28     O    0.00001   0.61927   0.12945   1.000
    O29     O    0.92502   0.55131   0.02981   1.000
    O30     O    0.07498   0.55140   0.02982   1.000
    O31     O    0.99995   0.60315   0.92678   1.000
    O32     O    0.92499   0.44878   0.97005   1.000
    O33     O    0.07494   0.44850   0.97021   1.000
    Zr34    Zr   0.50001   0.49999   0.99998   1.000
    O35     O    0.50002   0.38067   0.87051   1.000
    O36     O    0.49999   0.61929   0.12945   1.000
    O37     O    0.50002   0.60312   0.92677   1.000
    O38     O    0.50009   0.39684   0.07318   1.000
    O39     O    0.57500   0.55125   0.02979   1.000
    O40     O    0.42503   0.55143   0.02988   1.000
    O41     O    0.57496   0.44884   0.97004   1.000
    O42     O    0.42499   0.44843   0.97020   1.000
    Zr43    Zr   0.49999   0.99997   0.49998   1.000
    O44     O    0.50004   0.11914   0.37026   1.000
    O45     O    0.50001   0.10283   0.57350   1.000
    O46     O    0.57507   0.05149   0.47024   1.000
    O47     O    0.42512   0.05140   0.47011   1.000
    O48     O    0.57486   0.94853   0.52987   1.000
    O49     O    0.42490   0.94845   0.52973   1.000
    O50     O    0.50002   0.88080   0.62970   1.000
    O51     O    0.49998   0.89710   0.42647   1.000
loop_
    _geom_bond_atom_site_label_1
    _geom_bond_atom_site_label_2
    _geom_bond_distance
    _geom_bond_site_symmetry_2
    _ccdc_geom_bond_type
    Zr16   O17       3.22588      .   S
    N9     O17       4.29090      .   S
    Zr16   O18       2.01699  1_565   S
    N6     O18       4.25114      .   S
    Zr16   O19       2.02087  1_665   S
    N11    O19       4.25628      .   S
    Zr16   O20       3.22597  1_565   S
    N14    O20       4.29101      .   S
    Zr16   O21       2.12128  1_565   S
    N7     O21       3.14961      .   S
    Zr16   O22       2.12145  1_655   S
    N15    O22       3.14993      .   S
    Zr16   O23       2.01709  1_655   S
    N3     O23       4.25119      .   S
    Zr16   O24       2.02086      .   S
    N13    O24       4.25629      .   S
    Zr25   O26       2.11739  1_556   S
    N14    O26       3.14437      .   S
    Zr25   O27       3.22461      .   S
    N7     O27       4.28969      .   S
    Zr25   O28       3.22451  1_656   S
    N15    O28       4.28946      .   S
    Zr25   O29       2.01825  1_556   S
    N1     O29       4.25288      .   S
    Zr25   O30       2.01951  1_656   S
    N0     O30       4.25493      .   S
    Zr25   O31       2.11716      .   S
    N9     O31       3.14413      .   S
    Zr25   O32       2.01912      .   S
    N4     O32       4.25441      .   S
    Zr25   O33       2.01877  1_655   S
    N2     O33       4.25367      .   S
    Zr34   O35       3.22483      .   S
    N5     O35       4.28990      .   S
    Zr34   O36       3.22471  1_556   S
    N8     O36       4.28973      .   S
    Zr34   O37       2.11710      .   S
    N12    O37       3.14385      .   S
    Zr34   O38       2.11718  1_556   S
    N10    O38       3.14404      .   S
    Zr34   O39       2.01841  1_556   S
    N1     O39       4.25410      .   S
    Zr34   O40       2.01979  1_556   S
    N0     O40       4.25410      .   S
    Zr34   O41       2.01785      .   S
    N4     O41       4.25325      .   S
    Zr34   O42       2.02022      .   S
    N2     O42       4.25506      .   S
    Zr43   O44       3.22614  1_565   S
    N10    O44       4.29115      .   S
    Zr43   O45       2.12108  1_565   S
    N5     O45       3.14940      .   S
    Zr43   O46       2.02075  1_565   S
    N6     O46       4.25591      .   S
    Zr43   O47       2.01708  1_565   S
    N11    O47       4.25171      .   S
    Zr43   O48       2.01692      .   S
    N13    O48       4.25153      .   S
    Zr43   O49       2.02098      .   S
    N3     O49       4.25617      .   S
    Zr43   O50       3.22602      .   S
    N12    O50       4.29103      .   S
    Zr43   O51       2.12119      .   S
    N8     O51       3.14959      .   S
