# CIF file generated by openbabel 2.4.90, see http://openbabel.sf.net
data_I
_chemical_name_common ''
_cell_length_a 9.647
_cell_length_b 19.512
_cell_length_c 23.029
_cell_angle_alpha 89.998
_cell_angle_beta 93.397
_cell_angle_gamma 89.999
_space_group_name_H-M_alt 'P 1'
_space_group_name_Hall 'P 1'
loop_
    _symmetry_equiv_pos_as_xyz
    x,y,z
loop_
    _atom_site_label
    _atom_site_type_symbol
    _atom_site_fract_x
    _atom_site_fract_y
    _atom_site_fract_z
    _atom_site_occupancy
    Cd0     Cd   0.00008   0.50000   0.49999   1.000
    Cd1     Cd   0.50010   0.99999   0.49999   1.000
    Cd2     Cd   0.50009   0.50000   0.49999   1.000
    Cd3     Cd   0.00004   0.25000   0.00000   1.000
    Cd4     Cd   0.00004   0.75001   0.99999   1.000
    Cd5     Cd   0.50005   0.25000   0.00000   1.000
    Cd6     Cd   0.50006   0.75001   0.99999   1.000
    As7     As   0.27760   0.43460   0.59650   1.000
    As8     As   0.27762   0.93460   0.59651   1.000
    As9     As   0.77761   0.43460   0.59650   1.000
    As10    As   0.77764   0.93460   0.59651   1.000
    As11    As   0.22250   0.18459   0.90346   1.000
    As12    As   0.22251   0.68460   0.90346   1.000
    As13    As   0.72251   0.18459   0.90346   1.000
    As14    As   0.72252   0.68460   0.90346   1.000
    As15    As   0.22254   0.06540   0.40347   1.000
    As16    As   0.22254   0.56541   0.40347   1.000
    As17    As   0.72255   0.06540   0.40347   1.000
    As18    As   0.72255   0.56541   0.40347   1.000
    As19    As   0.27756   0.31540   0.09650   1.000
    As20    As   0.27756   0.81540   0.09650   1.000
    As21    As   0.77757   0.31540   0.09650   1.000
    As22    As   0.77758   0.81540   0.09650   1.000
    H23     H    0.06288   0.38243   0.58111   1.000
    H24     H    0.06290   0.88243   0.58111   1.000
    H25     H    0.56289   0.38243   0.58111   1.000
    H26     H    0.56291   0.88243   0.58111   1.000
    H27     H    0.32763   0.32340   0.91079   1.000
    Cd28    Cd   0.00009   0.99999   0.49999   1.000
    H29     H    0.32764   0.82341   0.91079   1.000
    H30     H    0.82764   0.32340   0.91079   1.000
    H31     H    0.82765   0.82341   0.91079   1.000
    H32     H    0.43723   0.13243   0.91880   1.000
    H33     H    0.43724   0.63243   0.91885   1.000
    H34     H    0.93724   0.13243   0.91880   1.000
    H35     H    0.93725   0.63243   0.91885   1.000
    H36     H    0.17250   0.07342   0.58917   1.000
    H37     H    0.17250   0.57342   0.58917   1.000
    H38     H    0.67251   0.07341   0.58917   1.000
    H39     H    0.67251   0.57342   0.58917   1.000
    C40     C    0.48694   0.88454   0.91133   1.000
    H41     H    0.43726   0.11757   0.41886   1.000
    H42     H    0.43726   0.61757   0.41886   1.000
    H43     H    0.93727   0.11757   0.41886   1.000
    H44     H    0.93727   0.61757   0.41886   1.000
    H45     H    0.17245   0.17659   0.08918   1.000
    H46     H    0.17245   0.67659   0.08918   1.000
    H47     H    0.67246   0.17659   0.08918   1.000
    H48     H    0.67247   0.67659   0.08918   1.000
    C49     C    0.51317   0.11546   0.08864   1.000
    H50     H    0.06283   0.36757   0.08112   1.000
    H51     H    0.06283   0.86757   0.08112   1.000
    H52     H    0.56284   0.36757   0.08112   1.000
    H53     H    0.56285   0.86757   0.08112   1.000
    H54     H    0.32769   0.42661   0.41080   1.000
    H55     H    0.32772   0.92661   0.41080   1.000
    H56     H    0.82770   0.42661   0.41080   1.000
    H57     H    0.82773   0.92661   0.41080   1.000
    C58     C    0.98692   0.38454   0.91133   1.000
    C59     C    0.98693   0.88454   0.91133   1.000
    C60     C    0.48693   0.38454   0.91133   1.000
    C61     C    0.51320   0.13454   0.58863   1.000
    C62     C    0.51320   0.63454   0.58863   1.000
    C63     C    0.00000   0.13454   0.58863   1.000
    C64     C    0.00000   0.63454   0.58863   1.000
    C65     C    0.51317   0.61546   0.08864   1.000
    C66     C    0.00000   0.11546   0.08864   1.000
    C67     C    0.00000   0.61546   0.08864   1.000
    C68     C    0.98698   0.36547   0.41134   1.000
    C69     C    0.98701   0.86547   0.41134   1.000
    C70     C    0.48699   0.36546   0.41134   1.000
    C71     C    0.48702   0.86547   0.41134   1.000
    O72     O    0.41558   0.41140   0.55740   1.000
    O73     O    0.41560   0.91140   0.55740   1.000
    O74     O    0.91559   0.41140   0.55740   1.000
    O75     O    0.91561   0.91140   0.55741   1.000
    O76     O    0.15975   0.36352   0.59259   1.000
    O77     O    0.15977   0.86352   0.59250   1.000
    O78     O    0.65976   0.36352   0.59250   1.000
    O79     O    0.65978   0.86352   0.59259   1.000
    O80     O    0.18727   0.50320   0.56688   1.000
    O81     O    0.18729   0.00000   0.56688   1.000
    O82     O    0.68728   0.50320   0.56688   1.000
    O83     O    0.68730   0.00000   0.56688   1.000
    O84     O    0.35663   0.37160   0.89514   1.000
    O85     O    0.35664   0.87160   0.89514   1.000
    O86     O    0.85664   0.37160   0.89514   1.000
    O87     O    0.85665   0.87160   0.89514   1.000
    O88     O    0.06400   0.34720   0.94268   1.000
    O89     O    0.06401   0.84720   0.94268   1.000
    O90     O    0.56401   0.34720   0.94268   1.000
    O91     O    0.56402   0.84721   0.94268   1.000
    O92     O    0.08453   0.16140   0.94255   1.000
    O93     O    0.08454   0.66140   0.94255   1.000
    O94     O    0.58454   0.16140   0.94255   1.000
    O95     O    0.58455   0.66140   0.94255   1.000
    O96     O    0.34036   0.11352   0.90738   1.000
    O97     O    0.34037   0.61352   0.90738   1.000
    O98     O    0.84037   0.11352   0.90738   1.000
    O99     O    0.84038   0.61352   0.90738   1.000
    O100    O    0.31284   0.25319   0.93309   1.000
    O101    O    0.31285   0.75319   0.93309   1.000
    O102    O    0.81285   0.25319   0.93309   1.000
    O103    O    0.81286   0.75319   0.93309   1.000
    O104    O    0.14350   0.12161   0.60483   1.000
    O105    O    0.14350   0.62161   0.60483   1.000
    O106    O    0.64351   0.12161   0.60483   1.000
    O107    O    0.64351   0.62161   0.60483   1.000
    O108    O    0.43614   0.09720   0.55728   1.000
    O109    O    0.43614   0.59720   0.55728   1.000
    O110    O    0.93616   0.09720   0.55728   1.000
    O111    O    0.93615   0.59721   0.55728   1.000
    O112    O    0.08456   0.08859   0.44256   1.000
    O113    O    0.08456   0.58860   0.44256   1.000
    O114    O    0.58458   0.08859   0.44256   1.000
    O115    O    0.58457   0.58860   0.44256   1.000
    O116    O    0.34039   0.13648   0.40738   1.000
    O117    O    0.34039   0.63648   0.40738   1.000
    O118    O    0.84040   0.13648   0.40730   1.000
    O119    O    0.84040   0.63649   0.40730   1.000
    O120    O    0.31289   0.99681   0.43310   1.000
    O121    O    0.31288   0.49681   0.43310   1.000
    O122    O    0.81290   0.99681   0.43310   1.000
    O123    O    0.81289   0.49681   0.43310   1.000
    O124    O    0.14345   0.12839   0.10484   1.000
    O125    O    0.14346   0.62840   0.10484   1.000
    O126    O    0.64347   0.12839   0.10484   1.000
    O127    O    0.64347   0.62839   0.10484   1.000
    O128    O    0.43609   0.15279   0.05730   1.000
    O129    O    0.43610   0.65280   0.05729   1.000
    O130    O    0.93610   0.15280   0.05730   1.000
    O131    O    0.93611   0.65280   0.05729   1.000
    O132    O    0.41553   0.33860   0.05742   1.000
    O133    O    0.41554   0.83860   0.05742   1.000
    O134    O    0.91554   0.33860   0.05742   1.000
    O135    O    0.91555   0.83860   0.05742   1.000
    O136    O    0.15970   0.38648   0.09200   1.000
    O137    O    0.15970   0.88648   0.09259   1.000
    O138    O    0.65971   0.38648   0.09200   1.000
    O139    O    0.65972   0.88648   0.09200   1.000
    O140    O    0.18723   0.24680   0.06689   1.000
    O141    O    0.18723   0.74681   0.06689   1.000
    O142    O    0.68724   0.24680   0.06689   1.000
    O143    O    0.68725   0.74681   0.06689   1.000
    O144    O    0.35669   0.37841   0.39515   1.000
    O145    O    0.35672   0.87841   0.39515   1.000
    O146    O    0.85671   0.37841   0.39515   1.000
    O147    O    0.85674   0.87842   0.39515   1.000
    O148    O    0.06408   0.40279   0.44268   1.000
    O149    O    0.06411   0.90280   0.44268   1.000
    O150    O    0.56409   0.40279   0.44268   1.000
    O151    O    0.56412   0.90279   0.44268   1.000
loop_
    _geom_bond_atom_site_label_1
    _geom_bond_atom_site_label_2
    _geom_bond_distance
    _geom_bond_site_symmetry_2
    _ccdc_geom_bond_type
    Cd3    O130      2.41152  1_455   S
    Cd3    O134      2.35138  1_455   S
    Cd3    O140      2.30394      .   S
    Cd3    O102      2.30418  1_454   S
    Cd3    O92       2.35193  1_554   S
    Cd3    O88       2.41177  1_554   S
    Cd5    O128      2.41162      .   S
    Cd5    O132      2.35146      .   S
    Cd5    O142      2.30394      .   S
    Cd5    O100      2.30437  1_554   S
    Cd5    O94       2.35191  1_554   S
    Cd5    O90       2.41177  1_554   S
    O131   C67       1.17429  1_655   S
    O131   Cd4       2.41159  1_654   S
    O129   C65       1.24137      .   S
    O129   Cd6       2.41167  1_554   S
    O130   C66       1.17426  1_655   S
    O128   C49       1.24130      .   S
    O135   As22      1.71124      .   S
    O135   Cd4       2.35152  1_654   S
    O134   As21      1.71123      .   S
    O133   As20      1.71125      .   S
    O133   Cd6       2.35160  1_554   S
    O132   As19      1.71124      .   S
    O141   As20      1.71628      .   S
    O141   Cd4       2.30406  1_554   S
    O140   As19      1.71630      .   S
    O142   As21      1.71629      .   S
    O143   As22      1.71629      .   S
    O143   Cd6       2.30407  1_554   S
    H53    O139      1.02201      .   S
    H52    O138      1.02201      .   S
    H50    O136      1.02201      .   S
    H51    O137      1.02469      .   S
    C65    O127      1.31432      .   S
    C67    O125      1.43422      .   S
    C49    O126      1.31430      .   S
    C66    O124      1.43418      .   S
    H45    O124      1.05105      .   S
    H46    O125      1.05103      .   S
    H47    O126      1.05105      .   S
    H48    O127      1.05105      .   S
    O139   As22      1.79245      .   S
    O138   As21      1.79245      .   S
    O136   As19      1.79244      .   S
    O137   As20      1.79222      .   S
    O144   H54       1.05097      .   S
    O144   C70       1.31427      .   S
    O145   H55       1.05097      .   S
    O145   C71       1.31427      .   S
    O146   H56       1.05097      .   S
    O146   C68       1.31404      .   S
    O147   H57       1.05097      .   S
    O147   C69       1.31405      .   S
    As18   O119      1.79221      .   S
    As18   O123      1.71642      .   S
    As18   O115      1.71139      .   S
    As17   O118      1.79220      .   S
    As17   O122      1.71641  1_545   S
    As17   O114      1.71138      .   S
    As16   O117      1.79224      .   S
    As16   O121      1.71643      .   S
    As16   O113      1.71137      .   S
    As15   O116      1.79224      .   S
    As15   O120      1.71641  1_545   S
    As15   O112      1.71137      .   S
    O119   H44       1.02510      .   S
    O118   H43       1.02510      .   S
    O117   H42       1.02472      .   S
    O116   H41       1.02472      .   S
    C70    O150      1.24137      .   S
    C68    O148      1.24137  1_655   S
    C69    O149      1.24138  1_655   S
    C71    O151      1.24136      .   S
    O122   Cd28      2.30393  1_655   S
    O123   Cd0       2.30390  1_655   S
    O121   Cd2       2.30408      .   S
    O120   Cd1       2.30410      .   S
    O115   Cd2       2.35153      .   S
    O114   Cd1       2.35152  1_545   S
    O113   Cd0       2.35153      .   S
    O112   Cd28      2.35152  1_545   S
    O148   Cd0       2.41183      .   S
    O149   Cd28      2.41181      .   S
    O150   Cd2       2.41185      .   S
    O151   Cd1       2.41182      .   S
    Cd0    O111      2.41148  1_455   S
    Cd0    O74       2.35122  1_455   S
    Cd0    O80       2.30393      .   S
    Cd28   O110      2.41148  1_465   S
    Cd28   O75       2.35124  1_455   S
    Cd28   O81       2.30316  1_565   S
    Cd1    O108      2.41154  1_565   S
    Cd1    O73       2.35119      .   S
    Cd1    O83       2.30318  1_565   S
    Cd2    O109      2.41153      .   S
    Cd2    O72       2.35131      .   S
    Cd2    O82       2.30393      .   S
    O108   C61       1.24138      .   S
    O109   C62       1.24142      .   S
    O110   C63       1.17417  1_655   S
    O111   C64       1.17417  1_655   S
    O74    As9       1.71153      .   S
    O73    As8       1.71167      .   S
    O72    As7       1.71153      .   S
    O75    As10      1.71152      .   S
    O80    As7       1.71638      .   S
    O81    As8       1.66821  1_545   S
    O82    As9       1.71637      .   S
    O83    As10      1.66822  1_545   S
    H23    O76       1.02475      .   S
    H24    O77       1.02433      .   S
    H26    O79       1.02475      .   S
    H25    O78       1.02433      .   S
    C63    O104      1.43454      .   S
    C62    O107      1.31431      .   S
    C61    O106      1.31431      .   S
    C64    O105      1.43455      .   S
    H39    O107      1.05104      .   S
    H38    O106      1.05103      .   S
    H37    O105      1.05102      .   S
    H36    O104      1.05103      .   S
    O77    As8       1.79225      .   S
    O78    As9       1.79223      .   S
    O76    As7       1.79221      .   S
    O79    As10      1.79221      .   S
    O84    H27       1.05096      .   S
    O84    C60       1.31426      .   S
    O87    H31       1.05098      .   S
    O87    C59       1.31403      .   S
    O86    H30       1.05096      .   S
    O86    C58       1.31406      .   S
    O85    H29       1.05098      .   S
    O85    C40       1.31427      .   S
    As13   O98       1.79223      .   S
    As13   O102      1.71645      .   S
    As13   O94       1.71137      .   S
    As12   O97       1.79224      .   S
    As12   O101      1.71645      .   S
    As12   O93       1.71138      .   S
    As11   O96       1.79223      .   S
    As11   O100      1.71644      .   S
    As11   O92       1.71137      .   S
    As14   O99       1.79224      .   S
    As14   O103      1.71645      .   S
    As14   O95       1.71137      .   S
    O99    H35       1.02468      .   S
    O98    H34       1.02445      .   S
    O97    H33       1.02469      .   S
    O96    H32       1.02446      .   S
    C59    O89       1.24148  1_655   S
    C58    O88       1.24141  1_655   S
    C60    O90       1.24141      .   S
    C40    O91       1.24146      .   S
    O101   Cd6       2.30422      .   S
    O103   Cd4       2.30403  1_655   S
    O95    Cd6       2.35179      .   S
    O93    Cd4       2.35178      .   S
    O91    Cd6       2.41161      .   S
    O89    Cd4       2.41162      .   S
