# CIF file generated by openbabel 2.4.90, see http://openbabel.sf.net
data_I
_chemical_name_common ''
_cell_length_a 10.063
_cell_length_b 17.5475
_cell_length_c 20.135
_cell_angle_alpha 76.8877
_cell_angle_beta 85.078
_cell_angle_gamma 76.9058
_space_group_name_H-M_alt 'P 1'
_space_group_name_Hall 'P 1'
loop_
    _symmetry_equiv_pos_as_xyz
    x,y,z
loop_
    _atom_site_label
    _atom_site_type_symbol
    _atom_site_fract_x
    _atom_site_fract_y
    _atom_site_fract_z
    _atom_site_occupancy
    N0      N    0.67634   0.70565   0.47028   1.000
    N1      N    0.32366   0.29437   0.52970   1.000
    N2      N    0.06113   0.79411   0.16149   1.000
    N3      N    0.67634   0.70565   0.97201   1.000
    N4      N    0.93889   0.20591   0.33847   1.000
    N5      N    0.93887   0.20591   0.83848   1.000
    N6      N    0.06111   0.79411   0.66150   1.000
    N7      N    0.32366   0.29437   0.02970   1.000
    Zr8     Zr   0.18684   0.45620   0.75450   1.000
    O9      O    0.09935   0.38837   0.77785   1.000
    Zr10    Zr   0.51057   0.95652   0.59347   1.000
    O11     O    0.55642   0.88849   0.54996   1.000
    Zr12    Zr   0.18686   0.45620   0.25449   1.000
    O13     O    0.09938   0.38837   0.27784   1.000
    Zr14    Zr   0.48941   0.04351   0.90653   1.000
    O15     O    0.44357   0.11153   0.95003   1.000
    Zr16    Zr   0.42173   0.24973   0.28795   1.000
    O17     O    0.28782   0.22663   0.30695   1.000
    O18     O    0.38482   0.27306   0.35503   1.000
    O19     O    0.57300   0.22779   0.30702   1.000
    O20     O    0.38423   0.27196   0.21245   1.000
    Zr21    Zr   0.81316   0.54382   0.24547   1.000
    O22     O    0.90064   0.61165   0.22212   1.000
    Zr23    Zr   0.81314   0.54382   0.74548   1.000
    O24     O    0.90062   0.61165   0.72213   1.000
    Zr25    Zr   0.51059   0.95652   0.09346   1.000
    O26     O    0.55643   0.88849   0.05141   1.000
    Zr27    Zr   0.57826   0.75028   0.71202   1.000
    O28     O    0.42700   0.77222   0.69295   1.000
    O29     O    0.71218   0.77339   0.69303   1.000
    O30     O    0.61517   0.72696   0.64495   1.000
    O31     O    0.61576   0.72806   0.78795   1.000
    Zr32    Zr   0.48943   0.04351   0.40651   1.000
    O33     O    0.44358   0.11153   0.45002   1.000
    Zr34    Zr   0.42171   0.24973   0.78796   1.000
    O35     O    0.38481   0.27306   0.85503   1.000
    O36     O    0.28780   0.22662   0.80696   1.000
    O37     O    0.38422   0.27196   0.71246   1.000
    O38     O    0.57298   0.22779   0.80703   1.000
    Zr39    Zr   0.57828   0.75029   0.21202   1.000
    O40     O    0.42702   0.77223   0.19294   1.000
    O41     O    0.61518   0.72696   0.14537   1.000
    O42     O    0.71220   0.77339   0.19302   1.000
    O43     O    0.61578   0.72806   0.28751   1.000
    O44     O    0.23050   0.40875   0.83642   1.000
    O45     O    0.45636   0.05719   0.07381   1.000
    O46     O    0.23033   0.40791   0.18736   1.000
    O47     O    0.14810   0.55688   0.72750   1.000
    O48     O    0.67449   0.90891   0.61512   1.000
    O49     O    0.37637   0.90801   0.61524   1.000
    O50     O    0.32551   0.09112   0.38486   1.000
    O51     O    0.62363   0.09202   0.38474   1.000
    O52     O    0.54365   0.94283   0.42616   1.000
    O53     O    0.85189   0.44314   0.27247   1.000
    O54     O    0.76950   0.59127   0.16399   1.000
    O55     O    0.76969   0.59211   0.31261   1.000
    O56     O    0.62362   0.09202   0.88476   1.000
    O57     O    0.32549   0.09112   0.88488   1.000
    O58     O    0.85187   0.44314   0.77248   1.000
    O59     O    0.23031   0.40791   0.68736   1.000
    O60     O    0.37639   0.90801   0.11523   1.000
    O61     O    0.67451   0.90890   0.11511   1.000
    O62     O    0.54364   0.94283   0.92712   1.000
    O63     O    0.45635   0.05719   0.57382   1.000
    O64     O    0.23051   0.40875   0.33641   1.000
    O65     O    0.14812   0.55688   0.22749   1.000
    O66     O    0.76967   0.59211   0.81305   1.000
    O67     O    0.76948   0.59126   0.66357   1.000
loop_
    _geom_bond_atom_site_label_1
    _geom_bond_atom_site_label_2
    _geom_bond_distance
    _geom_bond_site_symmetry_2
    _ccdc_geom_bond_type
    Zr8    O9        1.60078      .   S
    N5     O9        3.81844  1_655   S
    Zr10   O11       1.60031      .   S
    N0     O11       3.81747      .   S
    Zr12   O13       1.60079      .   S
    N4     O13       3.81847  1_655   S
    Zr14   O15       1.60022      .   S
    N7     O15       3.81726  1_554   S
    Zr16   O17       1.48841      .   S
    N4     O17       3.59935  1_655   S
    Zr16   O18       1.49182      .   S
    N1     O18       3.60682      .   S
    Zr16   O19       1.54289      .   S
    N4     O19       3.70872      .   S
    Zr16   O20       1.53878      .   S
    N7     O20       3.69958      .   S
    Zr21   O22       1.60080      .   S
    N2     O22       3.81847  1_455   S
    Zr23   O24       1.60081      .   S
    N6     O24       3.81849  1_455   S
    Zr25   O26       1.57997      .   S
    N3     O26       3.81423  1_556   S
    Zr27   O28       1.54286      .   S
    N6     O28       3.70867      .   S
    Zr27   O29       1.48845      .   S
    N6     O29       3.59941  1_455   S
    Zr27   O30       1.49177      .   S
    N0     O30       3.60672      .   S
    Zr27   O31       1.54711      .   S
    N3     O31       3.72539      .   S
    Zr32   O33       1.60028      .   S
    N1     O33       3.81740      .   S
    Zr34   O35       1.49177      .   S
    N7     O35       3.60666  1_554   S
    Zr34   O36       1.48840      .   S
    N5     O36       3.59934  1_655   S
    Zr34   O37       1.53881      .   S
    N1     O37       3.69970      .   S
    Zr34   O38       1.54289      .   S
    N5     O38       3.70873      .   S
    Zr39   O40       1.54286      .   S
    N2     O40       3.70868      .   S
    Zr39   O41       1.48349      .   S
    N3     O41       3.58088  1_556   S
    Zr39   O42       1.48844      .   S
    N2     O42       3.59941  1_455   S
    Zr39   O43       1.53884      .   S
    N0     O43       3.69976      .   S
    N7     O44       4.03511  1_554   S
    Zr8    O44       1.71526      .   S
    N7     O45       3.98775      .   S
    Zr25   O45       1.69056  1_565   S
    N7     O46       4.05445      .   S
    Zr12   O46       1.72833      .   S
    N6     O47       3.98750      .   S
    Zr8    O47       1.69027      .   S
    N6     O48       4.03548  1_455   S
    Zr10   O48       1.71541      .   S
    N6     O49       4.05556      .   S
    Zr10   O49       1.72933      .   S
    Zr32   O50       1.71541      .   S
    N4     O50       4.03550  1_655   S
    Zr32   O51       1.72933      .   S
    N4     O51       4.05554      .   S
    Zr32   O52       1.69056  1_545   S
    N0     O52       3.98776      .   S
    Zr21   O53       1.69027      .   S
    N4     O53       3.98751      .   S
    Zr21   O54       1.70763      .   S
    N3     O54       4.01231  1_556   S
    Zr21   O55       1.72841      .   S
    N0     O55       4.05465      .   S
    N5     O56       4.05552      .   S
    Zr14   O56       1.72933      .   S
    N5     O57       4.03552  1_655   S
    Zr14   O57       1.71543      .   S
    N5     O58       3.98750      .   S
    Zr23   O58       1.69027      .   S
    Zr8    O59       1.72837      .   S
    N1     O59       4.05459      .   S
    Zr25   O60       1.72932      .   S
    N2     O60       4.05554      .   S
    Zr25   O61       1.71542      .   S
    N2     O61       4.03550  1_455   S
    Zr14   O62       1.69114  1_545   S
    N3     O62       3.98803      .   S
    Zr10   O63       1.69055  1_565   S
    N1     O63       3.98773      .   S
    N1     O64       4.03521      .   S
    Zr12   O64       1.71528      .   S
    Zr12   O65       1.69027      .   S
    N2     O65       3.98750      .   S
    Zr23   O66       1.73596      .   S
    N3     O66       4.07738      .   S
    Zr23   O67       1.71526      .   S
    N0     O67       4.03517      .   S
