# CIF file generated by openbabel 2.4.90, see http://openbabel.sf.net
data_I
_chemical_name_common ''
_cell_length_a 19.009
_cell_length_b 13.056
_cell_length_c 12.882
_cell_angle_alpha 111.49
_cell_angle_beta 105.097
_cell_angle_gamma 98.844
_space_group_name_H-M_alt 'P 1'
_space_group_name_Hall 'P 1'
loop_
    _symmetry_equiv_pos_as_xyz
    x,y,z
loop_
    _atom_site_label
    _atom_site_type_symbol
    _atom_site_fract_x
    _atom_site_fract_y
    _atom_site_fract_z
    _atom_site_occupancy
    Zr0     Zr   0.00949   0.39566   0.57500   1.000
    Zr1     Zr   0.50950   0.39566   0.57509   1.000
    Zr2     Zr   0.49051   0.60431   0.42492   1.000
    Zr3     Zr   0.99052   0.60431   0.42492   1.000
    N4      N    0.73512   0.10997   0.93260   1.000
    O5      O    0.64000   0.89036   0.71805   1.000
    O6      O    0.83382   0.32565   0.14341   1.000
    N7      N    0.00000   0.99999   0.00001   1.000
    O8      O    0.98878   0.23256   0.78304   1.000
    O9      O    0.98404   0.78472   0.24553   1.000
    O10     O    0.01122   0.76741   0.21694   1.000
    O11     O    0.01597   0.21525   0.75446   1.000
    N12     N    0.26489   0.88979   0.06720   1.000
    O13     O    0.16619   0.67421   0.85647   1.000
    O14     O    0.36001   0.10951   0.28185   1.000
    N15     N    0.50001   0.99999   0.00000   1.000
    O16     O    0.51597   0.21525   0.75448   1.000
    O17     O    0.51122   0.76741   0.21694   1.000
    O18     O    0.48878   0.23256   0.78307   1.000
    O19     O    0.48404   0.78472   0.24552   1.000
    N20     N    0.23512   0.10997   0.93242   1.000
    O21     O    0.33381   0.32565   0.14332   1.000
    O22     O    0.13999   0.89035   0.71796   1.000
    N23     N    0.25000   0.99999   0.50001   1.000
    O24     O    0.36653   0.83402   0.43995   1.000
    O25     O    0.13347   0.16595   0.56004   1.000
    N26     N    0.75001   0.99999   0.50000   1.000
    O27     O    0.63348   0.16595   0.56005   1.000
    O28     O    0.86654   0.83402   0.43995   1.000
    N29     N    0.76489   0.88979   0.06719   1.000
    O30     O    0.66620   0.67421   0.85649   1.000
    O31     O    0.86002   0.10951   0.28183   1.000
loop_
    _geom_bond_atom_site_label_1
    _geom_bond_atom_site_label_2
    _geom_bond_distance
    _geom_bond_site_symmetry_2
    _ccdc_geom_bond_type
    N4     O5        3.02100  1_545   S
    Zr2    O5        4.13466      .   S
    N4     O6        2.99043  1_556   S
    Zr3    O6        4.07848      .   S
    N7     O8        4.81491  1_464   S
    Zr0    O8        4.04292  1_455   S
    N7     O9        4.97441  1_455   S
    Zr3    O9        3.85135      .   S
    N7     O10       4.81471      .   S
    Zr3    O10       4.04216  1_655   S
    N7     O11       4.97463  1_564   S
    Zr0    O11       3.85205      .   S
    N12    O13       2.98931  1_554   S
    Zr0    O13       4.07769      .   S
    N12    O14       3.02221  1_565   S
    Zr1    O14       4.13591      .   S
    N15    O16       4.97435  1_564   S
    Zr1    O16       3.85134      .   S
    N15    O17       4.81475      .   S
    Zr2    O17       4.04219      .   S
    N15    O18       4.81467  1_564   S
    Zr1    O18       4.04213      .   S
    N15    O19       4.97443      .   S
    Zr2    O19       3.85139      .   S
    N20    O21       2.99090  1_556   S
    Zr2    O21       4.07892      .   S
    N20    O22       3.02051  1_545   S
    Zr3    O22       4.13415  1_655   S
    N23    O24       3.36763      .   S
    Zr2    O24       4.07083      .   S
    N23    O25       3.36759  1_565   S
    Zr0    O25       4.07090      .   S
    N26    O27       3.36762  1_565   S
    Zr1    O27       4.07083      .   S
    N26    O28       3.36761      .   S
    Zr3    O28       4.07080      .   S
    N29    O30       2.98919  1_554   S
    Zr1    O30       4.07736      .   S
    N29    O31       3.02214  1_565   S
    Zr0    O31       4.13542  1_455   S
