# CIF file generated by openbabel 2.4.90, see http://openbabel.sf.net
data_I
_chemical_name_common ''
_cell_length_a 9.0155
_cell_length_b 9.0175
_cell_length_c 19.522
_cell_angle_alpha 90.006
_cell_angle_beta 90.004
_cell_angle_gamma 111.285
_space_group_name_H-M_alt 'P 1'
_space_group_name_Hall 'P 1'
loop_
    _symmetry_equiv_pos_as_xyz
    x,y,z
loop_
    _atom_site_label
    _atom_site_type_symbol
    _atom_site_fract_x
    _atom_site_fract_y
    _atom_site_fract_z
    _atom_site_occupancy
    Al0     Al   0.14192   0.16863   0.08235   1.000
    Al1     Al   0.49665   0.20644   0.31759   1.000
    Al2     Al   0.48256   0.19457   0.82653   1.000
    Al3     Al   0.35799   0.33154   0.58236   1.000
    Al4     Al   0.00333   0.29380   0.81759   1.000
    Al5     Al   0.98256   0.69456   0.67625   1.000
    Al6     Al   0.85804   0.83159   0.92040   1.000
    Al7     Al   0.50328   0.79375   0.68518   1.000
    Al8     Al   0.51739   0.80562   0.17623   1.000
    Al9     Al   0.64198   0.66865   0.42040   1.000
    Al10    Al   0.99657   0.70642   0.18516   1.000
    Al11    Al   0.01741   0.30562   0.32651   1.000
