# CIF file generated by openbabel 2.4.90, see http://openbabel.sf.net
data_I
_chemical_name_common ''
_cell_length_a 18.445
_cell_length_b 18.422
_cell_length_c 18.413
_cell_angle_alpha 60.144
_cell_angle_beta 60.178
_cell_angle_gamma 60.191
_space_group_name_H-M_alt 'P 1'
_space_group_name_Hall 'P 1'
loop_
    _symmetry_equiv_pos_as_xyz
    x,y,z
loop_
    _atom_site_label
    _atom_site_type_symbol
    _atom_site_fract_x
    _atom_site_fract_y
    _atom_site_fract_z
    _atom_site_occupancy
    Zr0     Zr   0.79327   0.79348   0.61939   1.000
    Zr1     Zr   0.79361   0.79371   0.79380   1.000
    Zr2     Zr   0.61987   0.79318   0.79328   1.000
    Zr3     Zr   0.79320   0.61949   0.79350   1.000
    Zr4     Zr   0.20673   0.20651   0.38062   1.000
    Zr5     Zr   0.20639   0.20628   0.20620   1.000
    Zr6     Zr   0.20680   0.38049   0.20651   1.000
    Zr7     Zr   0.38013   0.20680   0.20673   1.000
    Zr8     Zr   0.75013   0.75000   0.70000   1.000
    Zr9     Zr   0.24987   0.24999   0.25002   1.000
    O10     O    0.22833   0.31524   0.22827   1.000
    O11     O    0.31500   0.22840   0.22837   1.000
    O12     O    0.77170   0.77174   0.65970   1.000
    O13     O    0.68500   0.77159   0.74664   1.000
    O14     O    0.77167   0.68475   0.74675   1.000
    O15     O    0.22830   0.22825   0.31532   1.000
    O16     O    0.22813   0.22813   0.22811   1.000
    N17     N    0.00000   0.99999   0.50000   1.000
    O18     O    0.91496   0.91513   0.54770   1.000
    O19     O    0.91515   0.91521   0.62220   1.000
    O20     O    0.08504   0.08485   0.45230   1.000
    O21     O    0.08485   0.08478   0.37780   1.000
    N22     N    0.50000   0.49999   0.00000   1.000
    O23     O    0.54788   0.62193   0.91492   1.000
    O24     O    0.45212   0.37806   0.08507   1.000
    O25     O    0.37801   0.45235   0.08492   1.000
    O26     O    0.62199   0.54764   0.91509   1.000
    N27     N    0.50000   0.99999   1.00000   1.000
    O28     O    0.62216   0.91521   0.91525   1.000
    O29     O    0.54795   0.91493   0.91503   1.000
    O30     O    0.37784   0.08478   0.08474   1.000
    O31     O    0.45205   0.08506   0.08497   1.000
    N32     N    0.00000   0.49999   0.50000   1.000
    O33     O    0.91489   0.54771   0.62207   1.000
    O34     O    0.91495   0.62206   0.54765   1.000
    O35     O    0.08505   0.37792   0.45235   1.000
    O36     O    0.08511   0.45227   0.37794   1.000
    N37     N    0.00000   0.49999   0.99995   1.000
    O38     O    0.08486   0.37783   0.08472   1.000
    O39     O    0.91514   0.62216   0.91524   1.000
    O40     O    0.91494   0.54774   0.91512   1.000
    O41     O    0.08506   0.45224   0.08484   1.000
    N42     N    0.50000   0.99999   0.50000   1.000
    O43     O    0.62202   0.91505   0.54761   1.000
    O44     O    0.54789   0.91492   0.62197   1.000
    O45     O    0.45211   0.08507   0.37804   1.000
    O46     O    0.37799   0.08493   0.45240   1.000
loop_
    _geom_bond_atom_site_label_1
    _geom_bond_atom_site_label_2
    _geom_bond_distance
    _geom_bond_site_symmetry_2
    _ccdc_geom_bond_type
    Zr6    O10       0.98355      .   S
    Zr9    O10       0.98355      .   S
    Zr7    O11       0.98327      .   S
    Zr9    O11       0.98327      .   S
    Zr0    O12       0.66200      .   S
    Zr8    O12       0.66200      .   S
    Zr8    O13       1.08527      .   S
    Zr2    O13       1.08527      .   S
    Zr8    O14       1.08576      .   S
    Zr3    O14       1.08576      .   S
    Zr9    O15       0.98364      .   S
    Zr4    O15       0.98364      .   S
    Zr9    O16       0.98427      .   S
    Zr5    O16       0.98427      .   S
    N17    O18       2.31862  1_455   S
    Zr0    O18       3.30346      .   S
    N17    O19       2.31955  1_455   S
    Zr1    O19       3.30469      .   S
    N17    O20       2.31864  1_565   S
    Zr4    O20       3.30347      .   S
    N17    O21       2.31960  1_565   S
    Zr5    O21       3.30469      .   S
    N22    O23       2.31786  1_554   S
    Zr2    O23       3.30220      .   S
    N22    O24       2.31786      .   S
    Zr7    O24       3.30221      .   S
    N22    O25       2.31863      .   S
    Zr6    O25       3.30314      .   S
    N22    O26       2.31863  1_554   S
    Zr3    O26       3.30314      .   S
    N27    O28       2.31994      .   S
    Zr1    O28       3.30512      .   S
    N27    O29       2.31782      .   S
    Zr2    O29       3.30237      .   S
    N27    O30       2.31999  1_566   S
    Zr5    O30       3.30511      .   S
    N27    O31       2.31795  1_566   S
    Zr7    O31       3.30248      .   S
    N32    O33       2.31831  1_455   S
    Zr3    O33       3.30286      .   S
    N32    O34       2.31860  1_455   S
    Zr0    O34       3.30323      .   S
    N32    O35       2.31857      .   S
    Zr4    O35       3.30320      .   S
    N32    O36       2.31827      .   S
    Zr6    O36       3.30282      .   S
    N37    O38       2.31972  1_556   S
    Zr5    O38       3.30479      .   S
    N37    O39       2.31921  1_455   S
    Zr1    O39       3.30433      .   S
    N37    O40       2.31791  1_455   S
    Zr3    O40       3.30261      .   S
    N37    O41       2.31874  1_556   S
    Zr6    O41       3.30341      .   S
    N42    O43       2.31885      .   S
    Zr0    O43       3.30347      .   S
    N42    O44       2.31785      .   S
    Zr2    O44       3.30213      .   S
    N42    O45       2.31775  1_565   S
    Zr7    O45       3.30211      .   S
    N42    O46       2.31881  1_565   S
    Zr4    O46       3.30343      .   S
