# CIF file generated by openbabel 2.4.90, see http://openbabel.sf.net
data_I
_chemical_name_common ''
_cell_length_a 19.824
_cell_length_b 20.617
_cell_length_c 13.36
_cell_angle_alpha 74.154
_cell_angle_beta 79.598
_cell_angle_gamma 61.879
_space_group_name_H-M_alt 'P 1'
_space_group_name_Hall 'P 1'
loop_
    _symmetry_equiv_pos_as_xyz
    x,y,z
loop_
    _atom_site_label
    _atom_site_type_symbol
    _atom_site_fract_x
    _atom_site_fract_y
    _atom_site_fract_z
    _atom_site_occupancy
    Zr0     Zr   0.26611   0.29028   0.71877   1.000
    Zr1     Zr   0.26611   0.79029   0.71877   1.000
    Zr2     Zr   0.76611   0.29028   0.71877   1.000
    Zr3     Zr   0.76611   0.79029   0.71877   1.000
    Zr4     Zr   0.42403   0.44195   0.87337   1.000
    Zr5     Zr   0.42403   0.94196   0.87337   1.000
    Zr6     Zr   0.92403   0.44195   0.87337   1.000
    Zr7     Zr   0.92402   0.94196   0.87337   1.000
    Zr8     Zr   0.23345   0.21022   0.28119   1.000
    Zr9     Zr   0.23345   0.71023   0.28119   1.000
    Zr10    Zr   0.73345   0.21022   0.28119   1.000
    Zr11    Zr   0.73344   0.71023   0.28119   1.000
    Zr12    Zr   0.07546   0.05874   0.12639   1.000
    Zr13    Zr   0.07546   0.55876   0.12639   1.000
    Zr14    Zr   0.57546   0.05874   0.12639   1.000
    Zr15    Zr   0.57546   0.55876   0.12639   1.000
    Zr16    Zr   0.24960   0.25049   0.30000   1.000
    Zr17    Zr   0.24960   0.75050   0.40000   1.000
    Zr18    Zr   0.74960   0.25049   0.30000   1.000
    Zr19    Zr   0.74960   0.75050   0.30000   1.000
    O20     O    0.24153   0.23036   0.29059   1.000
    O21     O    0.24153   0.73037   0.34060   1.000
    O22     O    0.74152   0.23036   0.29059   1.000
    O23     O    0.74152   0.73037   0.29059   1.000
    N24     N    0.84137   0.88421   0.30444   1.000
    O25     O    0.87669   0.90727   0.12751   1.000
    O26     O    0.81239   0.84265   0.47563   1.000
    N27     N    0.34138   0.38440   0.30444   1.000
    O28     O    0.37670   0.40736   0.12751   1.000
    O29     O    0.31240   0.34273   0.47563   1.000
    N30     N    0.34138   0.88421   0.30444   1.000
    O31     O    0.37670   0.90727   0.12751   1.000
    O32     O    0.31240   0.84265   0.47563   1.000
    N33     N    0.84138   0.38440   0.30444   1.000
    O34     O    0.87669   0.40736   0.12751   1.000
    O35     O    0.81239   0.34273   0.47563   1.000
    N36     N    0.15785   0.11573   0.69550   1.000
    O37     O    0.18707   0.15751   0.52433   1.000
    O38     O    0.19111   0.16758   0.52904   1.000
    O39     O    0.12272   0.09301   0.87237   1.000
    N40     N    0.15784   0.61574   0.69550   1.000
    O41     O    0.19111   0.66759   0.55404   1.000
    O42     O    0.18707   0.65752   0.52433   1.000
    O43     O    0.12271   0.59302   0.87237   1.000
    N44     N    0.65853   0.11573   0.69550   1.000
    O45     O    0.68741   0.15751   0.52433   1.000
    O46     O    0.69145   0.16758   0.52904   1.000
    O47     O    0.62305   0.09301   0.87237   1.000
    N48     N    0.65852   0.61574   0.69550   1.000
    O49     O    0.68741   0.65752   0.52433   1.000
    O50     O    0.69144   0.66759   0.52904   1.000
    O51     O    0.62305   0.59302   0.87237   1.000
    N52     N    0.90470   0.63885   0.15655   1.000
    O53     O    0.96149   0.61112   0.14887   1.000
    O54     O    0.84554   0.66380   0.20117   1.000
    N55     N    0.15111   0.15113   0.14993   1.000
    O56     O    0.17803   0.17298   0.19605   1.000
    O57     O    0.12556   0.12041   0.14408   1.000
    N58     N    0.15111   0.65114   0.14993   1.000
    O59     O    0.17803   0.67299   0.19605   1.000
    O60     O    0.12556   0.62042   0.14408   1.000
    N61     N    0.65111   0.15113   0.14994   1.000
    O62     O    0.67803   0.17298   0.19605   1.000
    O63     O    0.62555   0.12041   0.14408   1.000
    N64     N    0.65111   0.65114   0.14993   1.000
    O65     O    0.67803   0.67299   0.19605   1.000
    O66     O    0.62555   0.62042   0.14408   1.000
    N67     N    0.09480   0.36181   0.84219   1.000
    O68     O    0.15398   0.33681   0.79814   1.000
    O69     O    0.03801   0.38955   0.85036   1.000
    N70     N    0.09480   0.86182   0.84219   1.000
    O71     O    0.15398   0.83682   0.79814   1.000
    O72     O    0.03801   0.88956   0.85036   1.000
    N73     N    0.59479   0.36181   0.84219   1.000
    O74     O    0.65398   0.33681   0.79814   1.000
    O75     O    0.53801   0.38955   0.85036   1.000
    N76     N    0.66469   0.39085   0.15490   1.000
    O77     O    0.69300   0.33840   0.20491   1.000
    O78     O    0.63550   0.44653   0.14742   1.000
    N79     N    0.66469   0.89086   0.15490   1.000
    O80     O    0.69300   0.83841   0.20491   1.000
    O81     O    0.63549   0.94654   0.14742   1.000
    N82     N    0.34849   0.34940   0.85000   1.000
    O83     O    0.37402   0.38017   0.85580   1.000
    O84     O    0.32156   0.32753   0.80390   1.000
    N85     N    0.59479   0.86182   0.84219   1.000
    O86     O    0.65398   0.83682   0.79814   1.000
    O87     O    0.53800   0.88956   0.85036   1.000
    N88     N    0.83473   0.10975   0.84374   1.000
    O89     O    0.81049   0.17224   0.79911   1.000
    O90     O    0.86394   0.05410   0.85184   1.000
    N91     N    0.83473   0.60976   0.84374   1.000
    O92     O    0.81049   0.67225   0.79911   1.000
    O93     O    0.86394   0.55411   0.85184   1.000
    N94     N    0.33474   0.10975   0.84374   1.000
    O95     O    0.31050   0.17224   0.79911   1.000
    O96     O    0.36395   0.05410   0.85184   1.000
    N97     N    0.16470   0.39085   0.15490   1.000
    O98     O    0.19301   0.33840   0.20491   1.000
    O99     O    0.13550   0.44653   0.14742   1.000
    N100    N    0.16469   0.89086   0.15490   1.000
    O101    O    0.18897   0.82835   0.20021   1.000
    O102    O    0.13550   0.94654   0.14742   1.000
    N103    N    0.90470   0.13884   0.15654   1.000
    O104    O    0.84554   0.16379   0.20116   1.000
    O105    O    0.96149   0.11111   0.14886   1.000
    N106    N    0.40471   0.13884   0.15654   1.000
    O107    O    0.46149   0.11111   0.14886   1.000
    O108    O    0.34554   0.16379   0.20116   1.000
    N109    N    0.40470   0.63885   0.15655   1.000
    O110    O    0.46149   0.61112   0.14887   1.000
    O111    O    0.34554   0.66380   0.20117   1.000
    N112    N    0.34849   0.84941   0.85000   1.000
    O113    O    0.37402   0.88018   0.85580   1.000
    O114    O    0.32156   0.82754   0.80390   1.000
    N115    N    0.84848   0.34940   0.85000   1.000
    O116    O    0.87401   0.38016   0.85580   1.000
    O117    O    0.82156   0.32753   0.80390   1.000
    N118    N    0.84848   0.84941   0.85000   1.000
    O119    O    0.87401   0.88017   0.85580   1.000
    O120    O    0.82155   0.82754   0.80390   1.000
    N121    N    0.33474   0.60976   0.84374   1.000
    O122    O    0.31049   0.67225   0.79911   1.000
    O123    O    0.36395   0.55411   0.85184   1.000
loop_
    _geom_bond_atom_site_label_1
    _geom_bond_atom_site_label_2
    _geom_bond_distance
    _geom_bond_site_symmetry_2
    _ccdc_geom_bond_type
    Zr8    O20       0.55867      .   S
    Zr16   O20       0.55867      .   S
    Zr9    O21       1.05652      .   S
    Zr17   O21       1.05652      .   S
    Zr10   O22       0.55866      .   S
    Zr18   O22       0.55866      .   S
    Zr11   O23       0.55866      .   S
    Zr19   O23       0.55866      .   S
    N24    O25       2.32513      .   S
    Zr7    O25       3.32802  1_556   S
    N24    O26       2.28356      .   S
    Zr3    O26       3.24062      .   S
    N27    O28       2.32499      .   S
    Zr4    O28       3.32788  1_556   S
    N27    O29       2.28401      .   S
    Zr0    O29       3.24101      .   S
    N30    O31       2.32513      .   S
    Zr5    O31       3.32803  1_556   S
    N30    O32       2.28356      .   S
    Zr1    O32       3.24062      .   S
    N33    O34       2.32499      .   S
    Zr6    O34       3.32788  1_556   S
    N33    O35       2.28401      .   S
    Zr2    O35       3.24101      .   S
    N36    O37       2.28546      .   S
    Zr8    O37       3.24256      .   S
    N36    O38       2.31519      .   S
    Zr16   O38       3.37057      .   S
    N36    O39       2.32315      .   S
    Zr12   O39       3.32568  1_554   S
    N40    O41       2.06412      .   S
    Zr17   O41       2.75456      .   S
    N40    O42       2.28546      .   S
    Zr9    O42       3.24256      .   S
    N40    O43       2.32315      .   S
    Zr13   O43       3.32568  1_554   S
    N44    O45       2.28376      .   S
    Zr10   O45       3.24080      .   S
    N44    O46       2.31296      .   S
    Zr18   O46       3.36772      .   S
    N44    O47       2.32459      .   S
    Zr14   O47       3.32703  1_554   S
    N48    O49       2.28377      .   S
    Zr11   O49       3.24080      .   S
    N48    O50       2.31297      .   S
    Zr19   O50       3.36773      .   S
    N48    O51       2.32459      .   S
    Zr15   O51       3.32703  1_554   S
    N52    O53       0.99415      .   S
    Zr13   O53       1.99833  1_455   S
    N52    O54       1.15833      .   S
    Zr11   O54       2.16635      .   S
    N55    O56       1.16798      .   S
    Zr8    O56       2.19409      .   S
    N55    O57       1.00397      .   S
    Zr12   O57       2.02412      .   S
    N58    O59       1.16798      .   S
    Zr9    O59       2.19409      .   S
    N58    O60       1.00397      .   S
    Zr13   O60       2.02412      .   S
    N61    O62       1.16793      .   S
    Zr10   O62       2.19405      .   S
    N61    O63       1.00399      .   S
    Zr14   O63       2.02412      .   S
    N64    O65       1.16798      .   S
    Zr11   O65       2.19410      .   S
    N64    O66       1.00397      .   S
    Zr15   O66       2.02411      .   S
    N67    O68       1.15530      .   S
    Zr0    O68       2.16335      .   S
    N67    O69       0.99459      .   S
    Zr6    O69       1.99917  1_655   S
    N70    O71       1.15530      .   S
    Zr1    O71       2.16336      .   S
    N70    O72       0.99459      .   S
    Zr7    O72       1.99916  1_655   S
    N73    O74       1.15530      .   S
    Zr2    O74       2.16337      .   S
    N73    O75       0.99455      .   S
    Zr4    O75       1.99904      .   S
    N76    O77       1.04854      .   S
    Zr18   O77       1.87031      .   S
    N76    O78       0.99733      .   S
    Zr15   O78       2.00467      .   S
    N79    O80       1.04854      .   S
    Zr19   O80       1.87031      .   S
    N79    O81       0.99725      .   S
    Zr14   O81       2.00441  1_545   S
    N82    O83       1.00414      .   S
    Zr4    O83       2.02448      .   S
    N82    O84       1.16810      .   S
    Zr0    O84       2.19462      .   S
    N85    O86       1.15530      .   S
    Zr3    O86       2.16335      .   S
    N85    O87       0.99455      .   S
    Zr5    O87       1.99904      .   S
    N88    O89       1.16043      .   S
    Zr2    O89       2.17824      .   S
    N88    O90       0.99595      .   S
    Zr7    O90       2.00287  1_565   S
    N91    O92       1.16043      .   S
    Zr3    O92       2.17824      .   S
    N91    O93       0.99603      .   S
    Zr6    O93       2.00313      .   S
    N94    O95       1.16042      .   S
    Zr0    O95       2.17823      .   S
    N94    O96       0.99594      .   S
    Zr5    O96       2.00286  1_565   S
    N97    O98       1.04854      .   S
    Zr16   O98       1.87031      .   S
    N97    O99       0.99733      .   S
    Zr13   O99       2.00466      .   S
    N100   O101      1.16346      .   S
    Zr9    O101      2.18161      .   S
    N100   O102      0.99724      .   S
    Zr12   O102      2.00440  1_545   S
    N103   O104      1.15836      .   S
    Zr10   O104      2.16638      .   S
    N103   O105      0.99415      .   S
    Zr12   O105      1.99832  1_455   S
    N106   O107      0.99411      .   S
    Zr14   O107      1.99822      .   S
    N106   O108      1.15835      .   S
    Zr8    O108      2.16638      .   S
    N109   O110      0.99411      .   S
    Zr15   O110      1.99821      .   S
    N109   O111      1.15833      .   S
    Zr9    O111      2.16635      .   S
    N112   O113      1.00414      .   S
    Zr5    O113      2.02449      .   S
    N112   O114      1.16809      .   S
    Zr1    O114      2.19462      .   S
    N115   O116      1.00413      .   S
    Zr6    O116      2.02446      .   S
    N115   O117      1.16812      .   S
    Zr2    O117      2.19463      .   S
    N118   O119      1.00414      .   S
    Zr7    O119      2.02448      .   S
    N118   O120      1.16810      .   S
    Zr3    O120      2.19461      .   S
    N121   O122      1.16042      .   S
    Zr1    O122      2.17823      .   S
    N121   O123      0.99603      .   S
    Zr4    O123      2.00312      .   S
