# CIF file generated by openbabel 2.4.90, see http://openbabel.sf.net
data_I
_chemical_name_common ''
_cell_length_a 20.781
_cell_length_b 12.145
_cell_length_c 12.144
_cell_angle_alpha 96.958
_cell_angle_beta 105.259
_cell_angle_gamma 74.891
_space_group_name_H-M_alt 'P 1'
_space_group_name_Hall 'P 1'
loop_
    _symmetry_equiv_pos_as_xyz
    x,y,z
loop_
    _atom_site_label
    _atom_site_type_symbol
    _atom_site_fract_x
    _atom_site_fract_y
    _atom_site_fract_z
    _atom_site_occupancy
    Zn0     Zn   0.62515   0.11694   0.11806   1.000
    Zn1     Zn   0.37485   0.88310   0.88205   1.000
    Zn2     Zn   0.87486   0.88308   0.88217   1.000
    Zn3     Zn   0.00000   0.00001   0.90000   1.000
    Zn4     Zn   0.50000   0.00001   0.40000   1.000
    Zn5     Zn   0.25000   0.00000   0.99999   1.000
    Zn6     Zn   0.74999   0.00000   0.10000   1.000
    Zn7     Zn   0.12515   0.11696   0.11798   1.000
    C8      C    0.08773   0.10805   0.87812   1.000
    C9      C    0.58773   0.10804   0.87815   1.000
    C10     C    0.02769   0.10825   0.24219   1.000
    C11     C    0.52768   0.10823   0.24223   1.000
    C12     C    0.50236   0.12466   0.34876   1.000
    C13     C    0.16231   0.87769   0.10823   1.000
    C14     C    0.66230   0.87767   0.10823   1.000
    C15     C    0.22248   0.24182   0.10800   1.000
    C16     C    0.72247   0.24181   0.10875   1.000
    C17     C    0.41227   0.89199   0.12190   1.000
    C18     C    0.91227   0.89198   0.12195   1.000
    C19     C    0.47232   0.89180   0.75783   1.000
    C20     C    0.97231   0.89179   0.75789   1.000
    C21     C    0.33770   0.12236   0.89180   1.000
    C22     C    0.83769   0.12235   0.89183   1.000
    C23     C    0.27752   0.75823   0.89129   1.000
    C24     C    0.77752   0.75821   0.89138   1.000
    O25     O    0.05855   0.11972   0.96376   1.000
    O26     O    0.55856   0.11970   0.96380   1.000
    O27     O    0.08834   0.12072   0.25169   1.000
    O28     O    0.58834   0.12070   0.25176   1.000
    O29     O    0.48663   0.08615   0.14870   1.000
    O30     O    0.98662   0.08618   0.14867   1.000
    O31     O    0.15161   0.07569   0.88880   1.000
    O32     O    0.65161   0.07566   0.88882   1.000
    O33     O    0.19161   0.96332   0.11998   1.000
    O34     O    0.69161   0.96331   0.12000   1.000
    O35     O    0.16200   0.25084   0.12156   1.000
    O36     O    0.66199   0.25083   0.12162   1.000
    O37     O    0.26350   0.14863   0.08640   1.000
    O38     O    0.76350   0.14860   0.08650   1.000
    O39     O    0.09838   0.88843   0.07599   1.000
    O40     O    0.59837   0.88842   0.07596   1.000
    O41     O    0.44145   0.88033   0.03626   1.000
    O42     O    0.94147   0.88031   0.03632   1.000
    O43     O    0.41166   0.87933   0.74833   1.000
    O44     O    0.91166   0.87930   0.74843   1.000
    O45     O    0.01338   0.91388   0.85130   1.000
    O46     O    0.51337   0.91390   0.85134   1.000
    O47     O    0.34839   0.92438   0.11121   1.000
    O48     O    0.84839   0.92435   0.11124   1.000
    O49     O    0.30839   0.03673   0.88002   1.000
    O50     O    0.80838   0.03671   0.88005   1.000
    O51     O    0.33801   0.74921   0.87846   1.000
    O52     O    0.83800   0.74920   0.87853   1.000
    O53     O    0.23650   0.85143   0.91356   1.000
    O54     O    0.73649   0.85141   0.91365   1.000
    O55     O    0.40162   0.11163   0.92411   1.000
    O56     O    0.90161   0.11160   0.92400   1.000
    Og57    Og   0.07229   0.11761   0.83995   1.000
    Og58    Og   0.57229   0.11760   0.83999   1.000
    Og59    Og   0.01925   0.11372   0.27770   1.000
    Ts60    Ts   0.51736   0.12307   0.38251   1.000
    Ts61    Ts   0.47847   0.13160   0.34564   1.000
    Og62    Og   0.17774   0.83957   0.11772   1.000
    Og63    Og   0.67773   0.83955   0.11772   1.000
    Og64    Og   0.23089   0.27741   0.11364   1.000
    Og65    Og   0.73088   0.27740   0.11416   1.000
    Og66    Og   0.42771   0.88244   0.16006   1.000
    Og67    Og   0.92772   0.88243   0.16010   1.000
    Og68    Og   0.48075   0.88633   0.72229   1.000
    Og69    Og   0.98074   0.88632   0.72237   1.000
    Og70    Og   0.32227   0.16048   0.88230   1.000
    Og71    Og   0.82226   0.16047   0.88232   1.000
    Og72    Og   0.26912   0.72264   0.88588   1.000
    Og73    Og   0.76911   0.72262   0.88596   1.000
loop_
    _geom_bond_atom_site_label_1
    _geom_bond_atom_site_label_2
    _geom_bond_distance
    _geom_bond_site_symmetry_2
    _ccdc_geom_bond_type
    O41    C17       1.31190      .   S
    O41    Zn1       2.01256  1_554   S
    O42    C18       1.31192      .   S
    O42    Zn2       2.01210  1_554   S
    O40    C14       1.25830      .   S
    O39    C13       1.25828      .   S
    O37    C15       1.27249      .   S
    O37    Zn5       2.02192  1_554   S
    O38    C16       1.27483      .   S
    O38    Zn6       1.92938      .   S
    C15    O35       1.28517      .   S
    C13    O33       1.31199      .   S
    C14    O34       1.31201      .   S
    C16    O36       1.28207      .   S
    O47    C17       1.25832      .   S
    O47    Zn5       2.17166  1_564   S
    O48    C18       1.25831      .   S
    O48    Zn6       1.98704  1_565   S
    Zn7    O33       2.00992  1_545   S
    Zn7    O35       1.96125      .   S
    Zn7    O27       1.95992      .   S
    Zn7    O25       2.01265  1_554   S
    Zn0    O36       1.96122      .   S
    Zn0    O28       1.95986      .   S
    Zn0    O26       2.01295  1_554   S
    O34    Zn6       1.48082  1_565   S
    O30    C10       1.27485  1_655   S
    O29    C11       1.27481      .   S
    C10    O27       1.28214      .   S
    C11    O28       1.28217      .   S
    C11    C12       1.49377      .   S
    C12    Zn4       1.72177      .   S
    O43    C19       1.28216      .   S
    O43    Zn1       1.96002      .   S
    O44    C20       1.28210      .   S
    O44    Zn2       1.96015      .   S
    C19    O46       1.27477      .   S
    C20    O45       1.27411  1_655   S
    O45    Zn3       1.14297  1_565   S
    C8     O31       1.25832      .   S
    C8     O25       1.31182      .   S
    C9     O32       1.25831      .   S
    C9     O26       1.31185      .   S
    O51    Zn1       1.96123      .   S
    O51    C23       1.28201      .   S
    O52    Zn2       1.96128      .   S
    O52    C24       1.28202      .   S
    O49    Zn1       2.00986  1_545   S
    O49    C21       1.31199      .   S
    O50    Zn2       2.00991  1_545   S
    O50    C22       1.31199      .   S
    O31    Zn5       2.17168      .   S
    C23    O53       1.27485      .   S
    C24    O54       1.27484      .   S
    C21    O55       1.25829      .   S
    C22    O56       1.25826      .   S
    O53    Zn5       2.02146  1_565   S
    O25    Zn3       2.08498      .   S
    O33    Zn5       2.27234  1_564   S
    O34    Zn0       2.00987  1_565   S
    O49    Zn5       2.27249      .   S
    O56    Zn3       2.20810  1_655   S
    C8     Og57      0.49667      .   S
    C9     Og58      0.49656      .   S
    C10    Og59      0.49794      .   S
    C12    Ts60      0.44388      .   S
    C12    Ts61      0.47334      .   S
    C13    Og62      0.49653      .   S
    C14    Og63      0.49653      .   S
    C15    Og64      0.49791      .   S
    C16    Og65      0.49808      .   S
    C17    Og66      0.49654      .   S
    C18    Og67      0.49643      .   S
    C19    Og68      0.49827      .   S
    C20    Og69      0.49798      .   S
    C21    Og70      0.49653      .   S
    C22    Og71      0.49655      .   S
    C23    Og72      0.49808      .   S
    C24    Og73      0.49809      .   S
