# CIF file generated by openbabel 2.4.90, see http://openbabel.sf.net
data_I
_chemical_name_common ''
_cell_length_a 18.42
_cell_length_b 18.428
_cell_length_c 18.43
_cell_angle_alpha 60.169
_cell_angle_beta 60.182
_cell_angle_gamma 60.18
_space_group_name_H-M_alt 'P 1'
_space_group_name_Hall 'P 1'
loop_
    _symmetry_equiv_pos_as_xyz
    x,y,z
loop_
    _atom_site_label
    _atom_site_type_symbol
    _atom_site_fract_x
    _atom_site_fract_y
    _atom_site_fract_z
    _atom_site_occupancy
    Zn0     Zn   0.38043   0.20662   0.20663   1.000
    Zn1     Zn   0.20633   0.20621   0.20622   1.000
    Zn2     Zn   0.20663   0.20677   0.38034   1.000
    Zn3     Zn   0.61959   0.79339   0.79334   1.000
    Zn4     Zn   0.79339   0.61966   0.79300   1.000
    Zn5     Zn   0.79369   0.79380   0.79375   1.000
    Zn6     Zn   0.79338   0.79324   0.61963   1.000
    Zn7     Zn   0.20663   0.38035   0.20677   1.000
    O8      O    0.24994   0.24992   0.24992   1.000
    O9      O    0.75007   0.75009   0.75005   1.000
loop_
    _geom_bond_atom_site_label_1
    _geom_bond_atom_site_label_2
    _geom_bond_distance
    _geom_bond_site_symmetry_2
    _ccdc_geom_bond_type
    Zn7    O8        1.96687      .   S
    O8     Zn2       1.96688      .   S
    Zn6    O9        1.96688      .   S
    O9     Zn4       1.96686      .   S
    O8     Zn0       1.96697      .   S
    O8     Zn1       1.96851      .   S
    O9     Zn3       1.96697      .   S
    O9     Zn5       1.96854      .   S
