# CIF file generated by openbabel 2.4.90, see http://openbabel.sf.net
data_I
_chemical_name_common ''
_cell_length_a 20.652
_cell_length_b 13.157
_cell_length_c 17.994
_cell_angle_alpha 79.403
_cell_angle_beta 86.853
_cell_angle_gamma 78.876
_space_group_name_H-M_alt 'P 1'
_space_group_name_Hall 'P 1'
loop_
    _symmetry_equiv_pos_as_xyz
    x,y,z
loop_
    _atom_site_label
    _atom_site_type_symbol
    _atom_site_fract_x
    _atom_site_fract_y
    _atom_site_fract_z
    _atom_site_occupancy
    N0      N    0.00528   0.62319   0.18019   1.000
    N1      N    0.49999   0.00000   0.49999   1.000
    N2      N    0.99999   1.00000   0.49999   1.000
    N3      N    0.50537   0.62320   0.18019   1.000
    N4      N    0.81232   0.82146   0.29743   1.000
    N5      N    0.99459   0.37680   0.81980   1.000
    N6      N    0.74999   0.00000   0.49999   1.000
    N7      N    0.31233   0.82146   0.29743   1.000
    N8      N    0.25000   0.00000   0.49999   1.000
    N9      N    0.68765   0.17854   0.70257   1.000
    N10     N    0.49461   0.37680   0.81981   1.000
    N11     N    0.18766   0.17854   0.70255   1.000
    Zr12    Zr   0.03444   0.03390   0.21974   1.000
    O13     O    0.02450   0.13612   0.09904   1.000
    O14     O    0.02269   0.21299   0.21177   1.000
    O15     O    0.94035   0.96904   0.24255   1.000
    O16     O    0.14548   0.96642   0.24469   1.000
    Zr17    Zr   0.96554   0.96609   0.78025   1.000
    O18     O    0.05963   0.03096   0.75744   1.000
    O19     O    0.85450   0.03358   0.75531   1.000
    O20     O    0.97692   0.78700   0.78822   1.000
    O21     O    0.97545   0.86388   0.90096   1.000
    Zr22    Zr   0.25000   0.50000   0.50000   1.000
    O23     O    0.17413   0.63792   0.49848   1.000
    O24     O    0.23163   0.40108   0.56311   1.000
    O25     O    0.32586   0.36208   0.50152   1.000
    O26     O    0.26837   0.59891   0.43688   1.000
    O27     O    0.24690   0.36260   0.48912   1.000
    O28     O    0.25310   0.63740   0.51084   1.000
    Zr29    Zr   0.46554   0.96609   0.78025   1.000
    O30     O    0.55962   0.03096   0.75745   1.000
    O31     O    0.47548   0.86388   0.90096   1.000
    O32     O    0.47692   0.78700   0.78822   1.000
    O33     O    0.35451   0.03358   0.75530   1.000
    Zr34    Zr   0.53443   0.03391   0.21974   1.000
    O35     O    0.44036   0.96904   0.24255   1.000
    O36     O    0.64548   0.96642   0.24468   1.000
    O37     O    0.52306   0.21300   0.21177   1.000
    O38     O    0.52450   0.13612   0.09903   1.000
    Zr39    Zr   0.74999   0.50000   0.50000   1.000
    O40     O    0.82585   0.36207   0.50152   1.000
    O41     O    0.76836   0.59891   0.43688   1.000
    O42     O    0.67412   0.63792   0.49848   1.000
    O43     O    0.74689   0.36260   0.48916   1.000
    O44     O    0.75309   0.63739   0.51084   1.000
    O45     O    0.73162   0.40108   0.56312   1.000
loop_
    _geom_bond_atom_site_label_1
    _geom_bond_atom_site_label_2
    _geom_bond_distance
    _geom_bond_site_symmetry_2
    _ccdc_geom_bond_type
    Zr12   O13       2.33153      .   S
    N5     O13       5.42117  1_656   S
    Zr12   O14       2.30012      .   S
    N0     O14       5.26549      .   S
    Zr12   O15       2.25735  1_445   S
    N4     O15       3.56729      .   S
    Zr12   O16       2.33019  1_545   S
    N7     O16       3.68365      .   S
    Zr17   O18       2.25736  1_665   S
    N11    O18       3.56732      .   S
    Zr17   O19       2.33016  1_565   S
    N9     O19       3.68363      .   S
    Zr17   O20       2.30082      .   S
    N5     O20       5.26481      .   S
    Zr17   O21       2.33161      .   S
    N0     O21       5.42113  1_454   S
    Zr22   O23       2.15356      .   S
    N2     O23       5.39025  1_655   S
    Zr22   O24       1.65137      .   S
    N11    O24       3.71040      .   S
    Zr22   O25       2.15353      .   S
    N1     O25       5.39019      .   S
    Zr22   O26       1.65146      .   S
    N7     O26       3.71047      .   S
    Zr22   O27       1.86719      .   S
    N8     O27       4.72682      .   S
    Zr22   O28       1.86700      .   S
    N8     O28       4.72693  1_545   S
    Zr29   O30       2.25725  1_565   S
    N9     O30       3.56720      .   S
    Zr29   O31       2.33162      .   S
    N3     O31       5.42118  1_554   S
    Zr29   O32       2.30081      .   S
    N10    O32       5.26475      .   S
    Zr29   O33       2.33009  1_565   S
    N11    O33       3.68359      .   S
    Zr34   O35       2.25723  1_545   S
    N7     O35       3.56718      .   S
    Zr34   O36       2.33009  1_545   S
    N4     O36       3.68363      .   S
    Zr34   O37       2.30082      .   S
    N3     O37       5.26476      .   S
    Zr34   O38       2.33157      .   S
    N10    O38       5.42102  1_556   S
    Zr39   O40       2.15357      .   S
    N2     O40       5.39028  1_565   S
    Zr39   O41       1.65146      .   S
    N4     O41       3.71046      .   S
    Zr39   O42       2.15354      .   S
    N1     O42       5.39018  1_545   S
    Zr39   O43       1.86700      .   S
    N6     O43       4.72693      .   S
    Zr39   O44       1.86700      .   S
    N6     O44       4.72692  1_545   S
    Zr39   O45       1.65146      .   S
    N9     O45       3.71042      .   S
