# CIF file generated by openbabel 2.4.90, see http://openbabel.sf.net
data_I
_chemical_name_common ''
_cell_length_a 13.218
_cell_length_b 13.2
_cell_length_c 18.517
_cell_angle_alpha 83.284
_cell_angle_beta 83.11
_cell_angle_gamma 67.658
_space_group_name_H-M_alt 'P 1'
_space_group_name_Hall 'P 1'
loop_
    _symmetry_equiv_pos_as_xyz
    x,y,z
loop_
    _atom_site_label
    _atom_site_type_symbol
    _atom_site_fract_x
    _atom_site_fract_y
    _atom_site_fract_z
    _atom_site_occupancy
    Zr0     Zr   0.70664   0.95635   0.78148   1.000
    Zr1     Zr   0.09851   0.71620   0.57764   1.000
    Zr2     Zr   0.04356   0.29343   0.71867   1.000
    Zr3     Zr   0.28059   0.90170   0.92234   1.000
    Zr4     Zr   0.29338   0.04363   0.21850   1.000
    Zr5     Zr   0.90151   0.28378   0.42237   1.000
    Zr6     Zr   0.95647   0.70654   0.28133   1.000
    Zr7     Zr   0.71945   0.09828   0.07767   1.000
    Zr8     Zr   0.86202   0.13788   0.74986   1.000
    Zr9     Zr   0.13800   0.86210   0.25015   1.000
    N10     N    0.63773   0.59947   0.83640   1.000
    O11     O    0.80644   0.47484   0.78737   1.000
    O12     O    0.73874   0.40692   0.80471   1.000
    O13     O    0.66202   0.74650   0.80807   1.000
    N14     N    0.36230   0.40050   0.16359   1.000
    O15     O    0.19357   0.52514   0.21260   1.000
    O16     O    0.33801   0.25348   0.19192   1.000
    O17     O    0.26129   0.59305   0.19529   1.000
    N18     N    0.59874   0.63900   0.33630   1.000
    O19     O    0.47437   0.80702   0.28697   1.000
    O20     O    0.40649   0.73942   0.30475   1.000
    O21     O    0.74618   0.66266   0.30803   1.000
    N22     N    0.40128   0.36099   0.66369   1.000
    O23     O    0.52565   0.19296   0.71302   1.000
    O24     O    0.59353   0.26056   0.69525   1.000
    O25     O    0.25384   0.33732   0.69197   1.000
    N26     N    0.76087   0.05929   0.91949   1.000
    O27     O    0.79483   0.08652   0.86067   1.000
    O28     O    0.74526   0.01873   0.87168   1.000
    O29     O    0.74782   0.07180   0.97235   1.000
    N30     N    0.88322   0.94269   0.17522   1.000
    O31     O    0.82870   0.99491   0.14277   1.000
    O32     O    0.90958   0.86021   0.21157   1.000
    O33     O    0.96972   0.91591   0.20205   1.000
    N34     N    0.11682   0.05672   0.82478   1.000
    O35     O    0.17135   0.00378   0.85723   1.000
    O36     O    0.09045   0.13948   0.78842   1.000
    O37     O    0.03031   0.08378   0.79796   1.000
    N38     N    0.93913   0.24042   0.58046   1.000
    O39     O    0.97831   0.25554   0.62835   1.000
    O40     O    0.92727   0.25415   0.52762   1.000
    O41     O    0.91262   0.20593   0.63917   1.000
    N42     N    0.05948   0.75955   0.41954   1.000
    O43     O    0.07204   0.74582   0.47237   1.000
    O44     O    0.01886   0.74442   0.37165   1.000
    O45     O    0.08670   0.79403   0.36083   1.000
    N46     N    0.05679   0.11821   0.32507   1.000
    O47     O    0.00377   0.17337   0.35740   1.000
    O48     O    0.08387   0.03119   0.29835   1.000
    O49     O    0.13955   0.09131   0.28859   1.000
    N50     N    0.23917   0.93927   0.08050   1.000
    O51     O    0.20520   0.91275   0.13933   1.000
    O52     O    0.25477   0.97844   0.12832   1.000
    O53     O    0.25222   0.92746   0.02765   1.000
    N54     N    0.94265   0.88177   0.67493   1.000
    O55     O    0.99495   0.82661   0.64260   1.000
    O56     O    0.86018   0.90867   0.71140   1.000
    O57     O    0.91587   0.96879   0.70165   1.000
    O58     O    0.48818   0.72375   0.87208   1.000
    O59     O    0.51186   0.27623   0.12792   1.000
    O60     O    0.72319   0.49022   0.37207   1.000
    O61     O    0.27683   0.50976   0.62792   1.000
loop_
    _geom_bond_atom_site_label_1
    _geom_bond_atom_site_label_2
    _geom_bond_distance
    _geom_bond_site_symmetry_2
    _ccdc_geom_bond_type
    N10    O11       2.36190      .   S
    Zr2    O11       3.35040  1_455   S
    N10    O12       2.48357      .   S
    Zr8    O12       3.51370      .   S
    N10    O13       2.08326      .   S
    Zr0    O13       3.01936      .   S
    N14    O15       2.36192      .   S
    Zr6    O15       3.35046  1_655   S
    N14    O16       2.08327      .   S
    Zr4    O16       3.01937      .   S
    N14    O17       2.48361      .   S
    Zr9    O17       3.51381      .   S
    N18    O19       2.36021      .   S
    Zr4    O19       3.34758  1_545   S
    N18    O20       2.48398      .   S
    Zr9    O20       3.51398      .   S
    N18    O21       2.08552      .   S
    Zr6    O21       3.02214      .   S
    N22    O23       2.36023      .   S
    Zr0    O23       3.34750  1_565   S
    N22    O24       2.48404      .   S
    Zr8    O24       3.51407      .   S
    N22    O25       2.08553      .   S
    Zr2    O25       3.02212      .   S
    N26    O27       1.19612      .   S
    Zr8    O27       2.27020      .   S
    N26    O28       1.16261      .   S
    Zr0    O28       2.13874  1_565   S
    N26    O29       0.99532      .   S
    Zr7    O29       1.98760  1_554   S
    N30    O31       0.99234      .   S
    Zr7    O31       1.98373  1_545   S
    N30    O32       1.16457      .   S
    Zr6    O32       2.18882      .   S
    N30    O33       1.21128      .   S
    Zr9    O33       2.31765  1_455   S
    N34    O35       0.99575      .   S
    Zr3    O35       1.97807  1_565   S
    N34    O36       1.16757      .   S
    Zr2    O36       2.19142      .   S
    N34    O37       1.21083      .   S
    Zr8    O37       2.31735  1_655   S
    N38    O39       1.15095      .   S
    Zr2    O39       2.15893  1_455   S
    N38    O40       0.99413      .   S
    Zr5    O40       1.98669      .   S
    N38    O41       1.19422      .   S
    Zr8    O41       2.26990      .   S
    N42    O43       0.99589      .   S
    Zr1    O43       1.98913      .   S
    N42    O44       1.16266      .   S
    Zr6    O44       2.13711  1_655   S
    N42    O45       1.19726      .   S
    Zr9    O45       2.27301      .   S
    N46    O47       0.99656      .   S
    Zr5    O47       1.98011  1_655   S
    N46    O48       1.21249      .   S
    Zr9    O48       2.32136  1_565   S
    N46    O49       1.16725      .   S
    Zr4    O49       2.19087      .   S
    N50    O51       1.19313      .   S
    Zr9    O51       2.26721      .   S
    N50    O52       1.15138      .   S
    Zr4    O52       2.15970  1_545   S
    N50    O53       0.99319      .   S
    Zr3    O53       1.98540  1_556   S
    N54    O55       0.99314      .   S
    Zr1    O55       1.98572  1_455   S
    N54    O56       1.16437      .   S
    Zr0    O56       2.18790      .   S
    N54    O57       1.21293      .   S
    Zr8    O57       2.32189  1_545   S
    Zr3    O58       2.98522      .   S
    N10    O58       2.12359      .   S
    Zr7    O59       2.98517      .   S
    N14    O59       2.12358      .   S
    Zr5    O60       2.98301      .   S
    N18    O60       2.12191      .   S
    Zr1    O61       2.98291      .   S
    N22    O61       2.12192      .   S
