# CIF file generated by openbabel 2.4.90, see http://openbabel.sf.net
data_I
_chemical_name_common ''
_cell_length_a 16.072
_cell_length_b 18.863
_cell_length_c 18.379
_cell_angle_alpha 90.289
_cell_angle_beta 90.035
_cell_angle_gamma 89.883
_space_group_name_H-M_alt 'P 1'
_space_group_name_Hall 'P 1'
loop_
    _symmetry_equiv_pos_as_xyz
    x,y,z
loop_
    _atom_site_label
    _atom_site_type_symbol
    _atom_site_fract_x
    _atom_site_fract_y
    _atom_site_fract_z
    _atom_site_occupancy
    Zn0     Zn   0.03147   0.71920   0.77817   1.000
    Zn1     Zn   0.02833   0.21898   0.72175   1.000
    Zn2     Zn   0.46847   0.21641   0.27808   1.000
    Zn3     Zn   0.97163   0.78101   0.27827   1.000
    Zn4     Zn   0.53151   0.78358   0.72193   1.000
    Zn5     Zn   0.52857   0.28363   0.77805   1.000
    Zn6     Zn   0.96853   0.28080   0.22184   1.000
    Zn7     Zn   0.47145   0.71632   0.22195   1.000
    C8      C    0.12917   0.33015   0.74196   1.000
    C9      C    0.07477   0.64042   0.88950   1.000
    C10     C    0.63183   0.67135   0.74388   1.000
    C11     C    0.92734   0.86083   0.38979   1.000
    C12     C    0.42725   0.13906   0.39003   1.000
    C13     C    0.13146   0.83127   0.75650   1.000
    C14     C    0.42774   0.63763   0.10900   1.000
    O15     O    0.62740   0.23661   0.73488   1.000
    O16     O    0.51406   0.81437   0.61871   1.000
    O17     O    0.62531   0.87376   0.65950   1.000
    O18     O    0.92026   0.14211   0.20007   1.000
    O19     O    0.87066   0.23427   0.26553   1.000
    O20     O    0.51393   0.31524   0.88121   1.000
    C21     C    0.36815   0.32863   0.25613   1.000
    C22     C    0.07271   0.13917   0.61027   1.000
    C23     C    0.37090   0.82872   0.24330   1.000
    C24     C    0.92518   0.35957   0.11051   1.000
    C25     C    0.62916   0.17121   0.75671   1.000
    C26     C    0.57276   0.86093   0.61000   1.000
    C27     C    0.86854   0.16873   0.24351   1.000
    C28     C    0.57225   0.36233   0.89010   1.000
    C29     C    0.87077   0.66986   0.25803   1.000
    O30     O    0.48594   0.18563   0.38131   1.000
    O31     O    0.37469   0.12624   0.34053   1.000
    O32     O    0.07973   0.85789   0.79994   1.000
    O33     O    0.12934   0.76573   0.73448   1.000
    O34     O    0.48606   0.68471   0.11878   1.000
    O35     O    0.37594   0.62381   0.15946   1.000
    O36     O    0.07709   0.35518   0.69800   1.000
    O37     O    0.12715   0.26537   0.76545   1.000
    O38     O    0.00000   0.68820   0.88129   1.000
    O39     O    0.12691   0.62673   0.83999   1.000
    O40     O    0.41989   0.35504   0.29964   1.000
    O41     O    0.36999   0.26298   0.23447   1.000
    O42     O    0.00000   0.18567   0.61898   1.000
    O43     O    0.12530   0.12657   0.65962   1.000
    O44     O    0.42320   0.85477   0.20040   1.000
    O45     O    0.37263   0.76331   0.26511   1.000
    O46     O    0.98298   0.31181   0.11873   1.000
    O47     O    0.87302   0.37326   0.16000   1.000
    O48     O    0.58009   0.64495   0.70036   1.000
    O49     O    0.62998   0.73700   0.76555   1.000
    O50     O    0.98650   0.81432   0.38104   1.000
    O51     O    0.87472   0.87343   0.34047   1.000
    O52     O    0.57687   0.14516   0.79962   1.000
    O53     O    0.62402   0.37616   0.84053   1.000
    O54     O    0.92291   0.64483   0.30194   1.000
    O55     O    0.87273   0.73466   0.23450   1.000
loop_
    _geom_bond_atom_site_label_1
    _geom_bond_atom_site_label_2
    _geom_bond_distance
    _geom_bond_site_symmetry_2
    _ccdc_geom_bond_type
    C14    O34       1.30432      .   S
    C14    O35       1.27487      .   S
    C24    O46       1.30198      .   S
    C24    O47       1.26274      .   S
    O46    Zn6       1.99993      .   S
    O34    Zn7       1.99865      .   S
    O18    C27       1.25530      .   S
    O44    C23       1.25548      .   S
    Zn6    O19       1.97577      .   S
    Zn7    O45       1.98149      .   S
    O41    C21       1.29909      .   S
    O41    Zn2       1.97979      .   S
    O55    C29       1.29902      .   S
    O55    Zn3       1.98369      .   S
    C23    O45       1.29938      .   S
    C27    O19       1.29928      .   S
    C21    O40       1.25549      .   S
    C29    O54       1.25608      .   S
    Zn2    O30       2.00631      .   S
    Zn3    O50       2.00194      .   S
    O51    C11       1.26253      .   S
    O31    C12       1.26390      .   S
    O50    C11       1.30183      .   S
    O30    C12       1.30079      .   S
    C26    O16       1.30081      .   S
    C26    O17       1.26379      .   S
    C22    O42       1.46805      .   S
    C22    O43       1.26253      .   S
    O16    Zn4       2.00617      .   S
    O42    Zn1       2.03910      .   S
    O36    C8        1.25611      .   S
    O48    C10       1.25547      .   S
    Zn1    O37       1.98255      .   S
    Zn4    O49       1.97973      .   S
    O33    C13       1.29926      .   S
    O33    Zn0       1.97583      .   S
    O15    C25       1.29942      .   S
    O15    Zn5       1.98185      .   S
    C8     O37       1.29846      .   S
    C10    O49       1.29907      .   S
    C13    O32       1.25533      .   S
    C25    O52       1.25542      .   S
    Zn5    O20       1.99856      .   S
    Zn0    O38       2.05019      .   S
    O39    C9        1.26283      .   S
    O53    C28       1.26288      .   S
    O20    C28       1.30220      .   S
    O38    C9        1.50850      .   S
