# CIF file generated by openbabel 2.4.90, see http://openbabel.sf.net
data_I
_chemical_name_common ''
_cell_length_a 9.0205
_cell_length_b 9.026
_cell_length_c 19.517
_cell_angle_alpha 89.999
_cell_angle_beta 89.997
_cell_angle_gamma 68.782
_space_group_name_H-M_alt 'P 1'
_space_group_name_Hall 'P 1'
loop_
    _symmetry_equiv_pos_as_xyz
    x,y,z
loop_
    _atom_site_label
    _atom_site_type_symbol
    _atom_site_fract_x
    _atom_site_fract_y
    _atom_site_fract_z
    _atom_site_occupancy
    Al0     Al   0.16692   0.85640   0.08283   1.000
    Al1     Al   0.20516   0.50124   0.31762   1.000
    Al2     Al   0.19677   0.51941   0.82648   1.000
    Al3     Al   0.33312   0.64347   0.58283   1.000
    Al4     Al   0.29474   0.99842   0.81762   1.000
    Al5     Al   0.69698   0.01945   0.67633   1.000
    Al6     Al   0.83296   0.14339   0.91995   1.000
    Al7     Al   0.79489   0.49849   0.68517   1.000
    Al8     Al   0.80311   0.48035   0.17630   1.000
    Al9     Al   0.66691   0.35631   0.41995   1.000
    Al10    Al   0.70522   0.00127   0.18518   1.000
    Al11    Al   0.30306   0.98032   0.32645   1.000
