# CIF file generated by openbabel 2.4.90, see http://openbabel.sf.net
data_I
_chemical_name_common ''
_cell_length_a 12.549
_cell_length_b 22.954
_cell_length_c 14.84
_cell_angle_alpha 90
_cell_angle_beta 90
_cell_angle_gamma 89.999
_space_group_name_H-M_alt 'P 1'
_space_group_name_Hall 'P 1'
loop_
    _symmetry_equiv_pos_as_xyz
    x,y,z
loop_
    _atom_site_label
    _atom_site_type_symbol
    _atom_site_fract_x
    _atom_site_fract_y
    _atom_site_fract_z
    _atom_site_occupancy
    Zn0     Zn   0.50002   0.25000   0.73845   1.000
    Zn1     Zn   0.50002   0.25000   0.23845   1.000
    Zn2     Zn   0.50002   0.75001   0.26155   1.000
    H3      H    0.07080   0.91128   0.85832   1.000
    H4      H    0.21180   0.83761   0.86240   1.000
    H5      H    0.21025   0.84323   0.15348   1.000
    H6      H    0.06913   0.91678   0.14972   1.000
    H7      H    0.66428   0.95862   0.79225   1.000
    H8      H    0.65608   0.85076   0.79815   1.000
    H9      H    0.33957   0.84866   0.72079   1.000
    H10     H    0.33098   0.95650   0.71369   1.000
    H11     H    0.92924   0.58874   0.85832   1.000
    H12     H    0.78825   0.66241   0.86240   1.000
    H13     H    0.78980   0.65679   0.15348   1.000
    H14     H    0.93092   0.58324   0.14972   1.000
    H15     H    0.33577   0.54140   0.79225   1.000
    H16     H    0.34396   0.64926   0.79815   1.000
    H17     H    0.66048   0.65135   0.72079   1.000
    H18     H    0.66907   0.54352   0.71369   1.000
    H19     H    0.07080   0.08873   0.64160   1.000
    H20     H    0.21179   0.16240   0.63751   1.000
    H21     H    0.21024   0.15678   0.34651   1.000
    H22     H    0.06912   0.08323   0.35027   1.000
    H23     H    0.66427   0.04139   0.70774   1.000
    H24     H    0.65608   0.14925   0.70184   1.000
    H25     H    0.33957   0.15135   0.77920   1.000
    H26     H    0.33097   0.04352   0.78630   1.000
    H27     H    0.92924   0.41127   0.64167   1.000
    H28     H    0.78825   0.33760   0.63751   1.000
    H29     H    0.78980   0.34323   0.34651   1.000
    H30     H    0.93091   0.41677   0.35027   1.000
    H31     H    0.33577   0.45861   0.70774   1.000
    Zn32    Zn   0.50002   0.75001   0.76154   1.000
    H33     H    0.34396   0.35075   0.70184   1.000
    H34     H    0.66047   0.34865   0.77920   1.000
    H35     H    0.66907   0.45648   0.78629   1.000
    H36     H    0.92924   0.08874   0.14167   1.000
    H37     H    0.78824   0.16240   0.13751   1.000
    H38     H    0.78980   0.15678   0.84651   1.000
    H39     H    0.93091   0.08323   0.85027   1.000
    H40     H    0.33576   0.04140   0.20774   1.000
    H41     H    0.34395   0.14926   0.20185   1.000
    H42     H    0.66047   0.15135   0.27920   1.000
    H43     H    0.66906   0.04351   0.28600   1.000
    H44     H    0.07080   0.41127   0.14167   1.000
    H45     H    0.21179   0.33760   0.13751   1.000
    H46     H    0.21024   0.34322   0.84651   1.000
    H47     H    0.06912   0.41677   0.85027   1.000
    H48     H    0.66427   0.45861   0.20774   1.000
    H49     H    0.65608   0.35075   0.20185   1.000
    H50     H    0.33957   0.34866   0.27920   1.000
    H51     H    0.33097   0.45649   0.28629   1.000
    H52     H    0.92924   0.91128   0.35832   1.000
    H53     H    0.78825   0.83761   0.36248   1.000
    H54     H    0.78980   0.84323   0.65348   1.000
    H55     H    0.93092   0.91678   0.64972   1.000
    H56     H    0.33578   0.95862   0.29226   1.000
    H57     H    0.34396   0.85076   0.29815   1.000
    H58     H    0.66047   0.84866   0.22079   1.000
    H59     H    0.66908   0.95649   0.21370   1.000
    H60     H    0.07080   0.58874   0.35832   1.000
    H61     H    0.21179   0.66241   0.36248   1.000
    H62     H    0.21024   0.65678   0.65348   1.000
    H63     H    0.06913   0.58324   0.64972   1.000
    H64     H    0.66427   0.54140   0.29226   1.000
    H65     H    0.65609   0.64926   0.29815   1.000
    H66     H    0.33957   0.65136   0.22079   1.000
    H67     H    0.33097   0.54353   0.21370   1.000
    C68     C    0.18014   0.85812   0.08857   1.000
    C69     C    0.22226   0.83457   0.00826   1.000
    C70     C    0.34636   0.76678   0.93125   1.000
    C71     C    0.34563   0.76852   0.09081   1.000
    C72     C    0.30500   0.79002   0.01029   1.000
    C73     C    0.58638   0.87619   0.77881   1.000
    C74     C    0.58996   0.93664   0.77539   1.000
    C75     C    0.49765   0.96782   0.75220   1.000
    C76     C    0.18104   0.85503   0.92563   1.000
    C77     C    0.40531   0.93550   0.73320   1.000
    C78     C    0.97387   0.96646   0.00105   1.000
    C79     C    0.90435   0.96309   0.08038   1.000
    C80     C    0.90648   0.96052   0.92070   1.000
    C81     C    0.10000   0.89971   0.08636   1.000
    C82     C    0.05935   0.91938   0.00370   1.000
    C83     C    0.40911   0.87506   0.73722   1.000
    C84     C    0.10101   0.89664   0.92334   1.000
    C85     C    0.81991   0.64190   0.08857   1.000
    C86     C    0.77779   0.66546   0.00826   1.000
    C87     C    0.65368   0.73324   0.93125   1.000
    C88     C    0.65442   0.73150   0.09080   1.000
    C89     C    0.69504   0.71000   0.01029   1.000
    C90     C    0.41366   0.62383   0.77880   1.000
    C91     C    0.41008   0.56338   0.77539   1.000
    C92     C    0.50240   0.53220   0.75219   1.000
    C93     C    0.81901   0.64498   0.92563   1.000
    C94     C    0.59473   0.56452   0.73323   1.000
    C95     C    0.02618   0.53356   0.00105   1.000
    C96     C    0.09570   0.53693   0.08038   1.000
    C97     C    0.09356   0.53950   0.92073   1.000
    C98     C    0.90005   0.60031   0.08636   1.000
    C99     C    0.94070   0.58064   0.00370   1.000
    C100    C    0.90648   0.53950   0.42070   1.000
    C101    C    0.10000   0.60031   0.58636   1.000
    C102    C    0.05934   0.58064   0.50370   1.000
    C103    C    0.40912   0.62496   0.23721   1.000
    C104    C    0.59093   0.62496   0.73721   1.000
    C105    C    0.89904   0.60338   0.92334   1.000
    C106    C    0.18013   0.14189   0.41142   1.000
    C107    C    0.22225   0.16545   0.49173   1.000
    C108    C    0.34635   0.23323   0.56874   1.000
    C109    C    0.34562   0.23149   0.40918   1.000
    C110    C    0.30499   0.20999   0.48970   1.000
    C111    C    0.58638   0.12382   0.72119   1.000
    C112    C    0.58996   0.06337   0.72460   1.000
    C113    C    0.49764   0.03219   0.74779   1.000
    C114    C    0.18103   0.14497   0.57430   1.000
    C115    C    0.40530   0.06452   0.76676   1.000
    C116    C    0.97386   0.03356   0.49894   1.000
    C117    C    0.90434   0.03692   0.41961   1.000
    C118    C    0.90647   0.03949   0.57927   1.000
    C119    C    0.09999   0.10030   0.41363   1.000
    C120    C    0.05934   0.08063   0.49629   1.000
    C121    C    0.40911   0.12496   0.76277   1.000
    C122    C    0.10100   0.10337   0.57665   1.000
    C123    C    0.81990   0.35811   0.41142   1.000
    C124    C    0.77779   0.33456   0.49173   1.000
    C125    C    0.65368   0.26678   0.56874   1.000
    C126    C    0.65442   0.26852   0.40918   1.000
    C127    C    0.69504   0.29001   0.48970   1.000
    C128    C    0.41365   0.37618   0.72119   1.000
    C129    C    0.41008   0.43664   0.72400   1.000
    C130    C    0.50239   0.46781   0.74780   1.000
    C131    C    0.81900   0.35503   0.57430   1.000
    C132    C    0.59473   0.43549   0.76675   1.000
    C133    C    0.02617   0.46645   0.49894   1.000
    C134    C    0.09569   0.46308   0.41961   1.000
    C135    C    0.09356   0.46051   0.57927   1.000
    C136    C    0.90004   0.39970   0.41363   1.000
    C137    C    0.94070   0.41938   0.49629   1.000
    C138    C    0.59093   0.37505   0.76270   1.000
    C139    C    0.89904   0.39663   0.57665   1.000
    C140    C    0.81990   0.14189   0.91142   1.000
    C141    C    0.77778   0.16545   0.99173   1.000
    C142    C    0.65368   0.23323   0.06874   1.000
    C143    C    0.65441   0.23149   0.90918   1.000
    C144    C    0.69504   0.20999   0.98970   1.000
    C145    C    0.41365   0.12383   0.22120   1.000
    C146    C    0.41008   0.06337   0.22460   1.000
    C147    C    0.50239   0.03219   0.24781   1.000
    C148    C    0.81900   0.14498   0.07436   1.000
    C149    C    0.59473   0.06452   0.26676   1.000
    C150    C    0.02617   0.03355   0.99894   1.000
    C151    C    0.09569   0.03692   0.91961   1.000
    C152    C    0.09356   0.03949   0.07927   1.000
    C153    C    0.90004   0.10030   0.91363   1.000
    C154    C    0.94070   0.08063   0.99629   1.000
    C155    C    0.59092   0.12495   0.26279   1.000
    C156    C    0.89904   0.10338   0.07665   1.000
    C157    C    0.18013   0.35811   0.91142   1.000
    C158    C    0.22225   0.33455   0.99173   1.000
    C159    C    0.34636   0.26677   0.06874   1.000
    C160    C    0.34562   0.26851   0.90918   1.000
    C161    C    0.30500   0.29001   0.98970   1.000
    C162    C    0.58638   0.37618   0.22120   1.000
    C163    C    0.58996   0.43664   0.22460   1.000
    C164    C    0.49765   0.46781   0.24780   1.000
    C165    C    0.18103   0.35503   0.07436   1.000
    C166    C    0.40531   0.43549   0.26670   1.000
    C167    C    0.97386   0.46645   0.99894   1.000
    C168    C    0.90434   0.46308   0.91961   1.000
    C169    C    0.90648   0.46052   0.07927   1.000
    C170    C    0.09999   0.39970   0.91363   1.000
    C171    C    0.05934   0.41937   0.99629   1.000
    C172    C    0.40911   0.37505   0.26279   1.000
    C173    C    0.10100   0.39663   0.07665   1.000
    C174    C    0.81991   0.85812   0.58857   1.000
    C175    C    0.77779   0.83457   0.50826   1.000
    C176    C    0.65369   0.76678   0.43125   1.000
    C177    C    0.65442   0.76852   0.59080   1.000
    C178    C    0.69505   0.79002   0.51029   1.000
    C179    C    0.41366   0.87619   0.27880   1.000
    C180    C    0.41009   0.93665   0.27540   1.000
    C181    C    0.50240   0.96782   0.25219   1.000
    C182    C    0.81901   0.85504   0.42563   1.000
    C183    C    0.59474   0.93550   0.23324   1.000
    C184    C    0.02618   0.96646   0.50105   1.000
    C185    C    0.09570   0.96309   0.58030   1.000
    C186    C    0.09357   0.96052   0.42070   1.000
    C187    C    0.90005   0.89971   0.58636   1.000
    C188    C    0.94070   0.91938   0.50370   1.000
    C189    C    0.59093   0.87506   0.23721   1.000
    C190    C    0.89904   0.89664   0.42334   1.000
    C191    C    0.18014   0.64190   0.58857   1.000
    C192    C    0.22225   0.66545   0.50826   1.000
    C193    C    0.34636   0.73324   0.43125   1.000
    C194    C    0.34562   0.73149   0.59081   1.000
    C195    C    0.30500   0.71000   0.51029   1.000
    C196    C    0.58639   0.62383   0.27800   1.000
    C197    C    0.58996   0.56337   0.27540   1.000
    C198    C    0.49765   0.53220   0.25218   1.000
    C199    C    0.18104   0.64498   0.42563   1.000
    C200    C    0.40531   0.56453   0.23324   1.000
    C201    C    0.97387   0.53356   0.50105   1.000
    C202    C    0.90435   0.53693   0.58038   1.000
    C203    C    0.10100   0.60338   0.42334   1.000
    N204    N    0.37872   0.74726   0.86317   1.000
    N205    N    0.37796   0.75005   0.15959   1.000
    N206    N    0.85066   0.95928   0.14419   1.000
    N207    N    0.49784   0.84534   0.75968   1.000
    N208    N    0.85458   0.95472   0.85622   1.000
    N209    N    0.62133   0.75276   0.86317   1.000
    N210    N    0.62209   0.74997   0.15959   1.000
    N211    N    0.14939   0.54075   0.14419   1.000
    N212    N    0.50222   0.65468   0.75970   1.000
    N213    N    0.14547   0.54530   0.85622   1.000
    N214    N    0.37871   0.25275   0.63682   1.000
    N215    N    0.37795   0.24996   0.34041   1.000
    N216    N    0.85065   0.04074   0.35580   1.000
    N217    N    0.49783   0.15467   0.74029   1.000
    N218    N    0.85457   0.04530   0.64378   1.000
    N219    N    0.62133   0.24726   0.63682   1.000
    N220    N    0.62209   0.25004   0.34041   1.000
    N221    N    0.14938   0.45926   0.35580   1.000
    N222    N    0.50221   0.34534   0.74029   1.000
    N223    N    0.14546   0.45470   0.64378   1.000
    N224    N    0.62132   0.25275   0.13682   1.000
    N225    N    0.62208   0.24996   0.84040   1.000
    N226    N    0.14938   0.04074   0.85580   1.000
    N227    N    0.50221   0.15467   0.24028   1.000
    N228    N    0.14546   0.04530   0.14378   1.000
    N229    N    0.37871   0.24726   0.13682   1.000
    N230    N    0.37795   0.25004   0.84040   1.000
    N231    N    0.85066   0.45927   0.85580   1.000
    N232    N    0.49782   0.34534   0.24020   1.000
    N233    N    0.85457   0.45471   0.14370   1.000
    N234    N    0.62133   0.74726   0.36317   1.000
    N235    N    0.62210   0.75005   0.65958   1.000
    N236    N    0.14939   0.95927   0.64419   1.000
    N237    N    0.50222   0.84535   0.25971   1.000
    N238    N    0.14547   0.95471   0.35622   1.000
    N239    N    0.37872   0.75276   0.36317   1.000
    N240    N    0.37795   0.74997   0.65958   1.000
    N241    N    0.85066   0.54075   0.64419   1.000
    N242    N    0.49783   0.65468   0.25970   1.000
    N243    N    0.85458   0.54531   0.35620   1.000
loop_
    _geom_bond_atom_site_label_1
    _geom_bond_atom_site_label_2
    _geom_bond_distance
    _geom_bond_site_symmetry_2
    _ccdc_geom_bond_type
    C95    C99       1.52304  1_455   S
    C95    C96       1.46731      .   S
    C95    C97       1.46779  1_554   S
    C95    C167      1.67485  1_454   S
    C78    C82       1.52304  1_655   S
    C78    C79       1.46732      .   S
    C78    C80       1.46817  1_554   S
    C78    C150      1.67438  1_664   S
    C99    C98       1.40319      .   S
    C99    C105      1.40286  1_554   S
    C82    C81       1.40319      .   S
    C82    C84       1.40289  1_554   S
    C86    C89       1.45760      .   S
    C86    C85       1.41139      .   S
    C86    C93       1.41139  1_554   S
    C69    C72       1.45761      .   S
    C69    C68       1.41138      .   S
    C69    C76       1.41135  1_554   S
    C72    C71       1.38967      .   S
    C72    C70       1.38917  1_554   S
    C89    C88       1.38954      .   S
    C89    C87       1.38913  1_554   S
    C142   N224      1.17740      .   S
    C142   C144      1.38917  1_554   S
    C159   N229      1.17741      .   S
    C159   C161      1.38913  1_554   S
    C165   C173      1.38626      .   S
    C165   H45       1.08959      .   S
    C165   C158      1.41138  1_554   S
    C148   C156      1.38627      .   S
    C148   H37       1.08959      .   S
    C148   C141      1.41135  1_554   S
    C173   H44       1.08977      .   S
    C173   C171      1.40285  1_554   S
    C156   H36       1.08977      .   S
    C156   C154      1.40289  1_554   S
    C169   N233      1.16457      .   S
    C169   C167      1.46791  1_554   S
    C152   N228      1.16554      .   S
    C152   C150      1.46792  1_554   S
    C79    N206      1.16546      .   S
    C96    N211      1.16545      .   S
    C81    C68       1.38702      .   S
    C81    H6        1.08982      .   S
    C98    C85       1.38702      .   S
    C98    H14       1.08981      .   S
    C68    H5        1.08966      .   S
    C85    H13       1.08966      .   S
    C88    N210      1.17752      .   S
    C71    N205      1.17739      .   S
    N224   Zn1       2.14381      .   S
    N229   Zn1       2.14380      .   S
    N205   Zn2       2.15312      .   S
    N210   Zn2       2.15312      .   S
    H49    C162      1.09001      .   S
    H41    C145      1.09003      .   S
    H48    C163      1.08936      .   S
    H40    C146      1.08936      .   S
    H59    C183      1.08934      .   S
    H67    C200      1.08933      .   S
    H66    C103      1.08999      .   S
    H58    C189      1.08998      .   S
    C162   C163      1.38935      .   S
    C162   N232      1.34758      .   S
    C145   C146      1.38933      .   S
    C145   N227      1.34781      .   S
    C163   C164      1.40445      .   S
    C146   C147      1.40452      .   S
    C183   C189      1.38939      .   S
    C183   C181      1.40441      .   S
    C200   C103      1.38941      .   S
    C200   C198      1.40439      .   S
    C189   N237      1.34759      .   S
    C103   N242      1.34751      .   S
    Zn1    N232      2.18862      .   S
    Zn1    N227      2.18864      .   S
    Zn1    N220      2.15314      .   S
    Zn1    N215      2.15315      .   S
    N232   C172      1.34786      .   S
    N227   C155      1.34760      .   S
    C164   C198      1.47937      .   S
    C164   C166      1.40427      .   S
    C147   C181      1.47902  1_545   S
    C147   C149      1.40441      .   S
    C198   C197      1.40454      .   S
    C181   C180      1.40451      .   S
    N242   Zn2       2.18864      .   S
    N242   C196      1.34540      .   S
    N237   Zn2       2.18866      .   S
    N237   C179      1.34779      .   S
    Zn2    N234      2.14371      .   S
    Zn2    N239      2.14372      .   S
    C155   C149      1.38939      .   S
    C155   H42       1.08995      .   S
    C172   C166      1.38937      .   S
    C172   H50       1.08995      .   S
    C166   H51       1.08954      .   S
    C149   H43       1.08816      .   S
    C180   C179      1.38935      .   S
    C180   H56       1.08937      .   S
    C197   C196      1.38897      .   S
    C197   H64       1.08937      .   S
    C196   H65       1.09320      .   S
    C179   H57       1.09003      .   S
    N220   C126      1.17728      .   S
    N215   C109      1.17729      .   S
    H21    C106      1.08965      .   S
    H29    C123      1.08966      .   S
    H30    C136      1.08982      .   S
    H22    C119      1.08982      .   S
    N216   C117      1.16546      .   S
    N221   C134      1.16545      .   S
    N243   C100      1.16542      .   S
    N238   C186      1.16517      .   S
    H52    C190      1.08976      .   S
    H60    C203      1.08977      .   S
    H53    C182      1.08959      .   S
    H61    C199      1.08959      .   S
    N234   C176      1.17743      .   S
    N239   C193      1.17744      .   S
    C126   C127      1.38968      .   S
    C109   C110      1.38968      .   S
    C106   C119      1.38702      .   S
    C106   C107      1.41139      .   S
    C123   C136      1.38701      .   S
    C123   C124      1.41140      .   S
    C136   C137      1.40320      .   S
    C119   C120      1.40319      .   S
    C134   C133      1.46731      .   S
    C117   C116      1.46732      .   S
    C100   C201      1.46816      .   S
    C186   C184      1.46816      .   S
    C203   C199      1.38626      .   S
    C203   C102      1.40287      .   S
    C190   C182      1.38626      .   S
    C190   C188      1.40287      .   S
    C182   C175      1.41137      .   S
    C199   C192      1.41137      .   S
    C176   C178      1.38915      .   S
    C193   C195      1.38917      .   S
    C110   C107      1.45762      .   S
    C110   C108      1.38916      .   S
    C127   C124      1.45761      .   S
    C127   C125      1.38915      .   S
    C107   C114      1.41060      .   S
    C124   C131      1.41060      .   S
    C120   C116      1.52306  1_455   S
    C120   C122      1.40287      .   S
    C137   C133      1.52304  1_655   S
    C137   C139      1.40288      .   S
    C133   C201      1.67480  1_455   S
    C133   C135      1.46792      .   S
    C116   C184      1.67455  1_645   S
    C116   C118      1.46792      .   S
    C201   C102      1.52306  1_655   S
    C201   C202      1.46731      .   S
    C184   C188      1.52306  1_455   S
    C184   C185      1.46636      .   S
    C188   C187      1.40320      .   S
    C102   C101      1.40320      .   S
    C192   C195      1.45760      .   S
    C192   C191      1.41139      .   S
    C175   C178      1.45762      .   S
    C175   C174      1.41139      .   S
    C178   C177      1.38955      .   S
    C195   C194      1.38968      .   S
    C125   N219      1.17744      .   S
    C108   N214      1.17743      .   S
    C114   C122      1.38629      .   S
    C114   H20       1.09036      .   S
    C131   C139      1.38629      .   S
    C131   H28       1.09035      .   S
    C122   H19       1.08884      .   S
    C139   H27       1.08976      .   S
    C135   N223      1.16555      .   S
    C118   N218      1.16555      .   S
    C185   N236      1.16642      .   S
    C202   N241      1.16545      .   S
    C101   C191      1.38701      .   S
    C101   H63       1.08982      .   S
    C187   C174      1.38701      .   S
    C187   H55       1.08982      .   S
    C191   H62       1.08966      .   S
    C174   H54       1.08966      .   S
    C177   N235      1.17741      .   S
    C194   N240      1.17729      .   S
    N219   Zn0       2.14383      .   S
    N214   Zn0       2.14382      .   S
    N240   Zn32      2.15315      .   S
    N235   Zn32      2.15316      .   S
    H33    C128      1.09005      .   S
    H24    C111      1.09004      .   S
    H31    C129      1.08736      .   S
    H23    C112      1.08937      .   S
    H18    C94       1.08933      .   S
    H10    C77       1.08920      .   S
    H9     C83       1.08999      .   S
    H17    C104      1.08997      .   S
    C128   C129      1.38903      .   S
    C128   N222      1.34779      .   S
    C111   C112      1.38935      .   S
    C111   N217      1.34779      .   S
    C129   C130      1.40671      .   S
    C112   C113      1.40450      .   S
    C77    C83       1.38942      .   S
    C77    C75       1.40450      .   S
    C94    C104      1.38939      .   S
    C94    C92       1.40440      .   S
    C104   N212      1.34759      .   S
    C83    N207      1.34757      .   S
    Zn0    N222      2.18864      .   S
    Zn0    N217      2.18864      .   S
    Zn0    N225      2.15302      .   S
    Zn0    N230      2.15303      .   S
    N222   C138      1.34730      .   S
    N217   C121      1.34758      .   S
    C113   C75       1.47902  1_545   S
    C113   C115      1.40440      .   S
    C130   C92       1.47937      .   S
    C130   C132      1.40438      .   S
    C92    C91       1.40451      .   S
    C75    C74       1.40452      .   S
    N207   Zn32      2.18862      .   S
    N207   C73       1.34782      .   S
    N212   Zn32      2.18864      .   S
    N212   C90       1.34780      .   S
    Zn32   N209      2.14380      .   S
    Zn32   N204      2.14380      .   S
    C138   C132      1.38944      .   S
    C138   H34       1.09024      .   S
    C121   C115      1.38940      .   S
    C121   H25       1.09000      .   S
    C132   H35       1.08934      .   S
    C115   H26       1.08933      .   S
    C74    C73       1.38934      .   S
    C74    H7        1.08938      .   S
    C91    C90       1.38933      .   S
    C91    H15       1.08937      .   S
    C90    H16       1.09004      .   S
    C73    H8        1.09003      .   S
    N225   C143      1.17739      .   S
    N230   C160      1.17739      .   S
    H46    C157      1.08966      .   S
    H38    C140      1.08966      .   S
    H39    C153      1.08982      .   S
    H47    C170      1.08982      .   S
    N231   C168      1.16545      .   S
    N226   C151      1.16546      .   S
    N208   C80       1.16518      .   S
    N213   C97       1.16555      .   S
    H3     C84       1.08977      .   S
    H11    C105      1.08977      .   S
    H4     C76       1.09062      .   S
    H12    C93       1.09062      .   S
    N209   C87       1.17740      .   S
    N204   C70       1.17740      .   S
    C160   C161      1.38966      .   S
    C143   C144      1.38966      .   S
    C157   C170      1.38701      .   S
    C157   C158      1.41139      .   S
    C140   C153      1.38702      .   S
    C140   C141      1.41139      .   S
    C153   C154      1.40319      .   S
    C170   C171      1.40319      .   S
    C151   C150      1.46731      .   S
    C168   C167      1.46732      .   S
    C105   C93       1.38625      .   S
    C84    C76       1.38626      .   S
    C144   C141      1.45760      .   S
    C161   C158      1.45761      .   S
    C154   C150      1.52304  1_655   S
    C171   C167      1.52304  1_455   S
