# CIF file generated by openbabel 2.4.90, see http://openbabel.sf.net
data_I
_chemical_name_common ''
_cell_length_a 20.75
_cell_length_b 25.128
_cell_length_c 20.218
_cell_angle_alpha 90.024
_cell_angle_beta 89.988
_cell_angle_gamma 90.036
_space_group_name_H-M_alt 'P 1'
_space_group_name_Hall 'P 1'
loop_
    _symmetry_equiv_pos_as_xyz
    x,y,z
loop_
    _atom_site_label
    _atom_site_type_symbol
    _atom_site_fract_x
    _atom_site_fract_y
    _atom_site_fract_z
    _atom_site_occupancy
    C0      C    0.38271   0.27993   0.89918   1.000
    C1      C    0.38272   0.77997   0.89910   1.000
    C2      C    0.88271   0.27994   0.89918   1.000
    C3      C    0.88272   0.77997   0.89910   1.000
    C4      C    0.36485   0.22110   0.62258   1.000
    C5      C    0.36486   0.72114   0.62256   1.000
    C6      C    0.86485   0.22110   0.62258   1.000
    C7      C    0.86486   0.72114   0.62256   1.000
    C8      C    0.41906   0.41736   0.99010   1.000
    C9      C    0.41905   0.91737   0.99000   1.000
    C10     C    0.91906   0.41736   0.99010   1.000
    C11     C    0.91905   0.91737   0.99009   1.000
    O12     O    0.06285   0.52127   0.57221   1.000
    O13     O    0.56284   0.02129   0.57223   1.000
    O14     O    0.56285   0.52127   0.57221   1.000
    O15     O    0.18914   0.48051   0.90637   1.000
    O16     O    0.18910   0.98066   0.90640   1.000
    O17     O    0.68915   0.48051   0.90637   1.000
    O18     O    0.68910   0.98066   0.90640   1.000
    O19     O    0.08625   0.44879   0.90290   1.000
    C20     C    0.36723   0.22014   0.39916   1.000
    C21     C    0.36723   0.72015   0.39916   1.000
    C22     C    0.86723   0.22014   0.39916   1.000
    C23     C    0.86723   0.72015   0.39916   1.000
    C24     C    0.38513   0.27895   0.12260   1.000
    C25     C    0.38513   0.77895   0.12259   1.000
    C26     C    0.88513   0.27895   0.12260   1.000
    C27     C    0.88513   0.77895   0.12259   1.000
    C28     C    0.33096   0.08270   0.48971   1.000
    C29     C    0.33096   0.58271   0.48972   1.000
    C30     C    0.83096   0.08270   0.48971   1.000
    C31     C    0.83096   0.58271   0.48972   1.000
    C32     C    0.11701   0.02989   0.60088   1.000
    C33     C    0.11702   0.52987   0.60086   1.000
    C34     C    0.61701   0.02989   0.60088   1.000
    C35     C    0.61702   0.52987   0.60086   1.000
    C36     C    0.13525   0.47081   0.87731   1.000
    C37     C    0.13523   0.97090   0.87735   1.000
    C38     C    0.63525   0.47081   0.87731   1.000
    C39     C    0.63523   0.97090   0.87735   1.000
    C40     C    0.08101   0.16731   0.51031   1.000
    C41     C    0.08101   0.66732   0.51030   1.000
    C42     C    0.58101   0.16731   0.51031   1.000
    C43     C    0.58101   0.66732   0.51030   1.000
    C44     C    0.13270   0.47019   0.10083   1.000
    C45     C    0.13271   0.97019   0.10083   1.000
    C46     C    0.63271   0.47019   0.10083   1.000
    C47     C    0.63271   0.97019   0.10083   1.000
    C48     C    0.11480   0.02895   0.37743   1.000
    C49     C    0.11479   0.52895   0.37743   1.000
    C50     C    0.61480   0.02895   0.37743   1.000
    C51     C    0.61479   0.52896   0.37743   1.000
    C52     C    0.16901   0.33269   0.01026   1.000
    C53     C    0.16900   0.83271   0.01020   1.000
    C54     C    0.66901   0.33269   0.01026   1.000
    C55     C    0.66900   0.83271   0.01020   1.000
    O56     O    0.33315   0.30112   0.92515   1.000
    O57     O    0.33315   0.80113   0.92514   1.000
    O58     O    0.83315   0.30112   0.92515   1.000
    O59     O    0.83315   0.80113   0.92514   1.000
    O60     O    0.43677   0.27116   0.92790   1.000
    O61     O    0.43677   0.77118   0.92789   1.000
    O62     O    0.93677   0.27116   0.92790   1.000
    O63     O    0.93677   0.77118   0.92789   1.000
    O64     O    0.31109   0.23103   0.59340   1.000
    O65     O    0.31110   0.73106   0.59338   1.000
    O66     O    0.81110   0.23103   0.59300   1.000
    O67     O    0.81110   0.73106   0.59338   1.000
    O68     O    0.41373   0.19884   0.59708   1.000
    O69     O    0.41373   0.69886   0.59707   1.000
    O70     O    0.91373   0.19884   0.59700   1.000
    O71     O    0.91373   0.69886   0.59707   1.000
    O72     O    0.41204   0.37045   0.01423   1.000
    O73     O    0.41203   0.87046   0.01423   1.000
    O74     O    0.91204   0.37045   0.01423   1.000
    O75     O    0.91203   0.87046   0.01423   1.000
    O76     O    0.47201   0.43961   0.97792   1.000
    O77     O    0.47200   0.93961   0.97791   1.000
    O78     O    0.97201   0.43961   0.97792   1.000
    O79     O    0.97200   0.93961   0.97791   1.000
    O80     O    0.41681   0.19902   0.42511   1.000
    O81     O    0.41680   0.69902   0.42511   1.000
    O82     O    0.91681   0.19902   0.42511   1.000
    O83     O    0.91680   0.69902   0.42511   1.000
    O84     O    0.31313   0.22883   0.42788   1.000
    O85     O    0.31312   0.72884   0.42788   1.000
    O86     O    0.81313   0.22883   0.42788   1.000
    O87     O    0.81312   0.72884   0.42788   1.000
    O88     O    0.43890   0.26902   0.09340   1.000
    O89     O    0.43890   0.76902   0.09340   1.000
    O90     O    0.93890   0.26902   0.09340   1.000
    O91     O    0.93890   0.76902   0.09340   1.000
    O92     O    0.33624   0.30115   0.09709   1.000
    O93     O    0.33624   0.80115   0.09709   1.000
    O94     O    0.83624   0.30115   0.09709   1.000
    O95     O    0.83624   0.80115   0.09709   1.000
    O96     O    0.33802   0.12953   0.51416   1.000
    O97     O    0.33802   0.62954   0.51416   1.000
    O98     O    0.83802   0.12953   0.51416   1.000
    O99     O    0.83802   0.62954   0.51416   1.000
    O100    O    0.27798   0.06040   0.47782   1.000
    O101    O    0.27798   0.56041   0.47782   1.000
    O102    O    0.77798   0.06040   0.47782   1.000
    O103    O    0.77798   0.56041   0.47782   1.000
    O104    O    0.16665   0.05095   0.57488   1.000
    O105    O    0.16664   0.55096   0.57488   1.000
    O106    O    0.66665   0.05095   0.57488   1.000
    O107    O    0.66665   0.55096   0.57488   1.000
    O108    O    0.06284   0.02129   0.57223   1.000
    O109    O    0.08627   0.94881   0.90294   1.000
    O110    O    0.58625   0.44879   0.90290   1.000
    O111    O    0.58627   0.94881   0.90294   1.000
    O112    O    0.08803   0.12048   0.48580   1.000
    O113    O    0.08803   0.62049   0.48585   1.000
    O114    O    0.58803   0.12048   0.48580   1.000
    O115    O    0.58803   0.62049   0.48585   1.000
    O116    O    0.02806   0.18960   0.52221   1.000
    O117    O    0.02805   0.68960   0.52221   1.000
    O118    O    0.52806   0.18960   0.52221   1.000
    O119    O    0.52805   0.68960   0.52221   1.000
    O120    O    0.08313   0.44898   0.07489   1.000
    O121    O    0.08313   0.94899   0.07489   1.000
    O122    O    0.58313   0.44899   0.07480   1.000
    O123    O    0.58313   0.94899   0.07489   1.000
    O124    O    0.18677   0.47896   0.07208   1.000
    O125    O    0.18677   0.97896   0.07208   1.000
    O126    O    0.68677   0.47896   0.07208   1.000
    O127    O    0.68677   0.97896   0.07208   1.000
    O128    O    0.06104   0.01898   0.40664   1.000
    O129    O    0.06104   0.51899   0.40663   1.000
    O130    O    0.56104   0.01898   0.40664   1.000
    O131    O    0.56104   0.51899   0.40663   1.000
    O132    O    0.16371   0.05118   0.40294   1.000
    O133    O    0.16371   0.55119   0.40294   1.000
    O134    O    0.66371   0.05118   0.40294   1.000
    O135    O    0.66371   0.55119   0.40294   1.000
    O136    O    0.16201   0.37950   0.98583   1.000
    O137    O    0.16201   0.87952   0.98581   1.000
    O138    O    0.66201   0.37950   0.98583   1.000
    O139    O    0.66201   0.87952   0.98581   1.000
    O140    O    0.22195   0.31041   0.02219   1.000
    O141    O    0.22195   0.81042   0.02220   1.000
    O142    O    0.72195   0.31041   0.02219   1.000
    O143    O    0.72195   0.81042   0.02220   1.000
loop_
    _geom_bond_atom_site_label_1
    _geom_bond_atom_site_label_2
    _geom_bond_distance
    _geom_bond_site_symmetry_2
    _ccdc_geom_bond_type
    C55    O143      1.25713      .   S
    C55    O139      1.28382  1_554   S
    C53    O141      1.25713      .   S
    C53    O137      1.28382  1_554   S
    C54    O142      1.25683      .   S
    C54    O138      1.28435  1_554   S
    C52    O140      1.25682      .   S
    C52    O136      1.28435  1_554   S
    O72    C8        1.28428  1_554   S
    O73    C9        1.28500  1_554   S
    O74    C10       1.28428  1_554   S
    O75    C11       1.28431  1_554   S
    O127   C47       1.28232      .   S
    O126   C46       1.28232      .   S
    O125   C45       1.28232      .   S
    O124   C44       1.28233      .   S
    O122   C46       1.27209      .   S
    O120   C44       1.27134      .   S
    O121   C45       1.27131      .   S
    O123   C47       1.27131      .   S
    O91    C27       1.28654      .   S
    O90    C26       1.28666      .   S
    O89    C25       1.28655      .   S
    O88    C24       1.28665      .   S
    O94    C26       1.26789      .   S
    O92    C24       1.26790      .   S
    O93    C25       1.26783      .   S
    O95    C27       1.26782      .   S
    C51    O135      1.26792      .   S
    C51    O131      1.28645      .   S
    C50    O134      1.26792      .   S
    C50    O130      1.28651      .   S
    C49    O133      1.26793      .   S
    C49    O129      1.28645      .   S
    C48    O132      1.26792      .   S
    C48    O128      1.28652      .   S
    C23    O83       1.27133      .   S
    C23    O87       1.28264      .   S
    C22    O82       1.27135      .   S
    C22    O86       1.28265      .   S
    C21    O81       1.27133      .   S
    C21    O85       1.28265      .   S
    C20    O80       1.27134      .   S
    C20    O84       1.28265      .   S
    O100   C28       1.25679      .   S
    O101   C29       1.25682      .   S
    O102   C30       1.25678      .   S
    O103   C31       1.25682      .   S
    O114   C42       1.28483      .   S
    O112   C40       1.28483      .   S
    O115   C43       1.28446      .   S
    O113   C41       1.28446      .   S
    C30    O98       1.28448      .   S
    C28    O96       1.28447      .   S
    C31    O99       1.28440      .   S
    C29    O97       1.28440      .   S
    C41    O117      1.25684      .   S
    C43    O119      1.25684      .   S
    C42    O118      1.25681      .   S
    C40    O116      1.25681      .   S
    O12    C33       1.28273      .   S
    O14    C35       1.28272      .   S
    O13    C34       1.28277      .   S
    O108   C32       1.28278      .   S
    O104   C32       1.27144      .   S
    O105   C33       1.27139      .   S
    O106   C34       1.27146      .   S
    O107   C35       1.27143      .   S
    O66    C6        1.29021      .   S
    O67    C7        1.28645      .   S
    O65    C5        1.28645      .   S
    O64    C4        1.28647      .   S
    O70    C6        1.26858      .   S
    O71    C7        1.26796      .   S
    O69    C5        1.26796      .   S
    O68    C4        1.26794      .   S
    C36    O19       1.26758      .   S
    C36    O15       1.28652      .   S
    C38    O110      1.26757      .   S
    C38    O17       1.28654      .   S
    C37    O109      1.26788      .   S
    C37    O16       1.28622      .   S
    C39    O111      1.26786      .   S
    C39    O18       1.28622      .   S
    C1     O57       1.27203      .   S
    C1     O61       1.28306      .   S
    C3     O59       1.27202      .   S
    C3     O63       1.28306      .   S
    C0     O56       1.27153      .   S
    C0     O60       1.28248      .   S
    C2     O58       1.27152      .   S
    C2     O62       1.28247      .   S
    O77    C9        1.25639      .   S
    O79    C11       1.25675      .   S
    O76    C8        1.25672      .   S
    O78    C10       1.25674      .   S
