# CIF file generated by openbabel 2.4.90, see http://openbabel.sf.net
data_I
_chemical_name_common ''
_cell_length_a 22.207
_cell_length_b 14.008
_cell_length_c 16.175
_cell_angle_alpha 90
_cell_angle_beta 90
_cell_angle_gamma 90
_space_group_name_H-M_alt 'P 1'
_space_group_name_Hall 'P 1'
loop_
    _symmetry_equiv_pos_as_xyz
    x,y,z
loop_
    _atom_site_label
    _atom_site_type_symbol
    _atom_site_fract_x
    _atom_site_fract_y
    _atom_site_fract_z
    _atom_site_occupancy
    C0      C    0.33041   0.00181   0.88057   1.000
    C1      C    0.83043   0.99819   0.88058   1.000
    C2      C    0.16959   0.99818   0.88050   1.000
    C3      C    0.66960   0.00182   0.88057   1.000
    C4      C    0.16958   0.00182   0.11944   1.000
    C5      C    0.66959   0.99820   0.11944   1.000
    C6      C    0.33041   0.99817   0.11945   1.000
    C7      C    0.83043   0.00181   0.11943   1.000
