# CIF file generated by openbabel 2.4.90, see http://openbabel.sf.net
data_I
_chemical_name_common ''
_cell_length_a 11.804
_cell_length_b 11.438
_cell_length_c 27.327
_cell_angle_alpha 89.971
_cell_angle_beta 90.057
_cell_angle_gamma 82.266
_space_group_name_H-M_alt 'P 1'
_space_group_name_Hall 'P 1'
loop_
    _symmetry_equiv_pos_as_xyz
    x,y,z
loop_
    _atom_site_label
    _atom_site_type_symbol
    _atom_site_fract_x
    _atom_site_fract_y
    _atom_site_fract_z
    _atom_site_occupancy
    Zn0     Zn   0.74956   0.74974   0.66217   1.000
    Zn1     Zn   0.25039   0.25028   0.33783   1.000
    Zn2     Zn   0.24978   0.24994   0.84319   1.000
    Zn3     Zn   0.75016   0.75008   0.15681   1.000
    Pd4     Pd   0.24994   0.74994   0.90710   1.000
    Pd5     Pd   0.75033   0.24980   0.40710   1.000
    Pd6     Pd   0.24966   0.75020   0.59286   1.000
    Pd7     Pd   0.75001   0.25007   0.09290   1.000
    C8      C    0.89479   0.81320   0.73170   1.000
    C9      C    0.60936   0.67832   0.08202   1.000
    C10     C    0.60433   0.68678   0.73163   1.000
    C11     C    0.89103   0.82175   0.08204   1.000
    C12     C    0.81890   0.89292   0.22860   1.000
    O13     O    0.92869   0.83557   0.58961   1.000
    O14     O    0.27375   0.11482   0.79608   1.000
    O15     O    0.08306   0.15483   0.78128   1.000
    O16     O    0.24071   0.37888   0.38921   1.000
    C17     C    0.67056   0.60994   0.58531   1.000
    C18     C    0.68171   0.60709   0.22865   1.000
    C19     C    0.82888   0.88798   0.58509   1.000
    C20     C    0.18106   0.10711   0.77133   1.000
    C21     C    0.32940   0.39007   0.41469   1.000
    C22     C    0.31824   0.39292   0.77135   1.000
    C23     C    0.17110   0.11203   0.41491   1.000
    C24     C    0.10516   0.18682   0.26830   1.000
    C25     C    0.39058   0.32169   0.91798   1.000
    C26     C    0.39562   0.31324   0.26837   1.000
    C27     C    0.10892   0.17827   0.91796   1.000
    O28     O    0.88148   0.71706   0.70845   1.000
    O29     O    0.85178   0.91505   0.72083   1.000
    O30     O    0.62424   0.77069   0.10624   1.000
    O31     O    0.65760   0.57464   0.08748   1.000
    O32     O    0.61721   0.78290   0.70824   1.000
    O33     O    0.64781   0.58502   0.72092   1.000
    O34     O    0.87609   0.72937   0.10627   1.000
    O35     O    0.84267   0.92539   0.08742   1.000
    O36     O    0.72620   0.88518   0.20393   1.000
    O37     O    0.91689   0.84517   0.21870   1.000
    O38     O    0.75925   0.62113   0.61079   1.000
    O39     O    0.57036   0.66128   0.58982   1.000
    O40     O    0.77427   0.61484   0.20389   1.000
    O41     O    0.58364   0.65487   0.21873   1.000
    O42     O    0.74012   0.87770   0.61061   1.000
    O43     O    0.42960   0.33873   0.41018   1.000
    O44     O    0.22568   0.38519   0.79611   1.000
    O45     O    0.41631   0.34515   0.78127   1.000
    O46     O    0.25986   0.12230   0.38939   1.000
    O47     O    0.07129   0.16443   0.41039   1.000
    O48     O    0.11847   0.28296   0.29155   1.000
    O49     O    0.14816   0.08496   0.27917   1.000
    O50     O    0.37571   0.22932   0.89376   1.000
    O51     O    0.34235   0.42537   0.91252   1.000
    O52     O    0.38274   0.21712   0.29176   1.000
    O53     O    0.35213   0.41500   0.27908   1.000
    O54     O    0.12385   0.27065   0.89373   1.000
    O55     O    0.15727   0.07462   0.91258   1.000
loop_
    _geom_bond_atom_site_label_1
    _geom_bond_atom_site_label_2
    _geom_bond_distance
    _geom_bond_site_symmetry_2
    _ccdc_geom_bond_type
    C9     O31       1.25328      .   S
    C9     O30       1.27888      .   S
    C11    O35       1.25337      .   S
    C11    O34       1.27895      .   S
    O30    Zn3       2.01887      .   S
    O34    Zn3       2.02064      .   S
    Zn3    O40       2.00191      .   S
    Zn3    O36       2.00282      .   S
    O40    C18       1.29880      .   S
    O36    C12       1.29785      .   S
    O37    C12       1.24100      .   S
    O41    C18       1.24140      .   S
    C24    O49       1.24234      .   S
    C24    O48       1.29791      .   S
    C26    O53       1.24241      .   S
    C26    O52       1.29801      .   S
    O48    Zn1       2.00074      .   S
    O52    Zn1       2.00364      .   S
    Zn1    O16       2.02617      .   S
    Zn1    O46       2.02334      .   S
    O16    C21       1.27747      .   S
    O46    C23       1.27769      .   S
    O43    C21       1.25394      .   S
    O47    C23       1.25386      .   S
    C19    O13       1.25386      .   S
    C19    O42       1.27774      .   S
    C17    O39       1.25393      .   S
    C17    O38       1.27743      .   S
    O42    Zn0       2.02325      .   S
    O38    Zn0       2.02618      .   S
    Zn0    O32       2.00361      .   S
    Zn0    O28       2.00075      .   S
    O32    C10       1.29802      .   S
    O28    C8        1.29792      .   S
    O29    C8        1.24236      .   S
    O33    C10       1.24240      .   S
    C20    O15       1.24125      .   S
    C20    O14       1.29883      .   S
    C22    O45       1.24137      .   S
    C22    O44       1.29871      .   S
    O14    Zn2       2.00272      .   S
    O44    Zn2       2.00199      .   S
    Zn2    O54       2.02065      .   S
    Zn2    O50       2.01890      .   S
    O54    C27       1.27896      .   S
    O50    C25       1.27889      .   S
    O51    C25       1.25327      .   S
    O55    C27       1.25336      .   S
