# CIF file generated by openbabel 2.4.90, see http://openbabel.sf.net
data_I
_chemical_name_common ''
_cell_length_a 13.444
_cell_length_b 13.791
_cell_length_c 27.651
_cell_angle_alpha 90.014
_cell_angle_beta 89.914
_cell_angle_gamma 89.064
_space_group_name_H-M_alt 'P 1'
_space_group_name_Hall 'P 1'
loop_
    _symmetry_equiv_pos_as_xyz
    x,y,z
loop_
    _atom_site_label
    _atom_site_type_symbol
    _atom_site_fract_x
    _atom_site_fract_y
    _atom_site_fract_z
    _atom_site_occupancy
    Cd0     Cd   0.89378   0.54090   0.18676   1.000
    Cd1     Cd   0.12247   0.78279   0.06739   1.000
    Cd2     Cd   0.48803   0.33173   0.87490   1.000
    Cd3     Cd   0.37893   0.95942   0.81057   1.000
    Cd4     Cd   0.61262   0.70981   0.92955   1.000
    Cd5     Cd   0.50632   0.83495   0.62613   1.000
    Cd6     Cd   0.60810   0.45771   0.69060   1.000
    Cd7     Cd   0.37871   0.21482   0.57025   1.000
    Cd8     Cd   0.00920   0.66445   0.37269   1.000
    Cd9     Cd   0.11644   0.03972   0.31206   1.000
    Cd10    Cd   0.87863   0.28897   0.42953   1.000
    Cd11    Cd   0.00042   0.83351   0.87345   1.000
    Cd12    Cd   0.10729   0.45658   0.81092   1.000
    Cd13    Cd   0.87740   0.21389   0.93134   1.000
    Cd14    Cd   0.51053   0.67055   0.12680   1.000
    Cd15    Cd   0.62117   0.04390   0.18980   1.000
    Cd16    Cd   0.38547   0.29339   0.07195   1.000
    Cd17    Cd   0.49424   0.16396   0.37490   1.000
    Cd18    Cd   0.39256   0.54186   0.31150   1.000
    Cd19    Cd   0.62240   0.78480   0.43151   1.000
    Cd20    Cd   0.98940   0.33660   0.62525   1.000
    Cd21    Cd   0.88539   0.96096   0.68750   1.000
    Cd22    Cd   0.12181   0.71226   0.56910   1.000
    C23     C    0.93157   0.39015   0.16611   1.000
    C24     C    0.77028   0.08254   0.16350   1.000
    C25     C    0.08659   0.93777   0.08536   1.000
    C26     C    0.23379   0.24245   0.08536   1.000
    C27     C    0.03286   0.68028   0.11000   1.000
    C28     C    0.90424   0.20322   0.01000   1.000
    C29     C    0.08773   0.08889   0.23751   1.000
    C30     C    0.43206   0.10163   0.83373   1.000
    C31     C    0.25587   0.41120   0.83625   1.000
    Cd32    Cd   0.00000   0.16217   0.12569   1.000
    C33     C    0.54638   0.56784   0.91521   1.000
    C34     C    0.72338   0.26385   0.91906   1.000
    C35     C    0.52760   0.80136   0.87844   1.000
    C36     C    0.39853   0.29973   0.99230   1.000
    C37     C    0.57747   0.40854   0.76481   1.000
    C38     C    0.55877   0.60372   0.66864   1.000
    C39     C    0.73716   0.91412   0.66377   1.000
    C40     C    0.44364   0.06964   0.58510   1.000
    C41     C    0.27319   0.76452   0.58195   1.000
    C42     C    0.46252   0.30684   0.62050   1.000
    C43     C    0.60310   0.79293   0.51083   1.000
    C44     C    0.41319   0.91382   0.73573   1.000
    C45     C    0.06583   0.89554   0.33331   1.000
    C46     C    0.24203   0.58518   0.33620   1.000
    C47     C    0.94326   0.43129   0.41284   1.000
    C48     C    0.77612   0.73544   0.41708   1.000
    C49     C    0.96539   0.19386   0.38039   1.000
    C50     C    0.10448   0.70050   0.48988   1.000
    C51     C    0.92575   0.59153   0.26022   1.000
    C52     C    0.05367   0.60220   0.83176   1.000
    C53     C    0.23233   0.91185   0.83555   1.000
    C54     C    0.93865   0.06788   0.91387   1.000
    C55     C    0.76152   0.76542   0.91458   1.000
    C56     C    0.96145   0.30643   0.88100   1.000
    C57     C    0.07881   0.78701   0.99028   1.000
    C58     C    0.91578   0.91298   0.76236   1.000
    C59     C    0.57341   0.89899   0.16690   1.000
    C60     C    0.74110   0.57980   0.16213   1.000
    C61     C    0.44767   0.43768   0.08600   1.000
    C62     C    0.27882   0.75377   0.08864   1.000
    C63     C    0.47273   0.19967   0.12131   1.000
    C64     C    0.60164   0.70202   0.00886   1.000
    C65     C    0.42488   0.59183   0.23772   1.000
    C66     C    0.44057   0.39551   0.33325   1.000
    C67     C    0.26405   0.08481   0.33753   1.000
    C68     C    0.55850   0.93032   0.41630   1.000
    C69     C    0.72717   0.23640   0.41751   1.000
    C70     C    0.53638   0.69194   0.38245   1.000
    C71     C    0.39792   0.20578   0.49097   1.000
    C72     C    0.58701   0.08954   0.26427   1.000
    C73     C    0.93557   0.10506   0.66592   1.000
    C74     C    0.75743   0.41437   0.66413   1.000
    C75     C    0.05496   0.57039   0.58488   1.000
    C76     C    0.22484   0.26602   0.58262   1.000
    C77     C    0.03525   0.80664   0.61872   1.000
    C78     C    0.89636   0.29999   0.50875   1.000
    C79     C    0.07685   0.41086   0.73607   1.000
    Ts80    Ts   0.92438   0.57118   0.16972   1.000
    Ts81    Ts   0.47726   0.28043   0.86583   1.000
    Ts82    Ts   0.43689   0.35062   0.86679   1.000
    Ts83    Ts   0.49948   0.38418   0.88509   1.000
    Ts84    Ts   0.53955   0.31606   0.88553   1.000
    Ts85    Ts   0.46569   0.32153   0.90040   1.000
    Ts86    Ts   0.51117   0.34775   0.85104   1.000
    Ts87    Ts   0.41254   0.92467   0.82542   1.000
    Ts88    Ts   0.51680   0.78383   0.63574   1.000
    Ts89    Ts   0.55710   0.85363   0.63418   1.000
    Ts90    Ts   0.49377   0.88673   0.61566   1.000
    Ts91    Ts   0.45512   0.81904   0.61551   1.000
    Ts92    Ts   0.52998   0.82229   0.60117   1.000
    Ts93    Ts   0.48259   0.85181   0.64983   1.000
    Ts94    Ts   0.57538   0.42474   0.67516   1.000
    Ts95    Ts   0.02071   0.71573   0.36397   1.000
    Ts96    Ts   0.06024   0.64513   0.36512   1.000
    Ts97    Ts   0.99576   0.61268   0.38254   1.000
    Ts98    Ts   0.95830   0.68113   0.38316   1.000
    Ts99    Ts   0.03250   0.67503   0.39828   1.000
    Ts100   Ts   0.98734   0.64940   0.34818   1.000
    Ts101   Ts   0.08260   0.07322   0.32727   1.000
    Ts102   Ts   0.01073   0.78240   0.86392   1.000
    Ts103   Ts   0.05183   0.85147   0.86551   1.000
    Ts104   Ts   0.98708   0.88506   0.88337   1.000
    Ts105   Ts   0.94712   0.81828   0.88273   1.000
    Ts106   Ts   0.01940   0.82062   0.89879   1.000
    Ts107   Ts   0.97876   0.85023   0.84927   1.000
    Ts108   Ts   0.07424   0.42420   0.82646   1.000
    Ts109   Ts   0.52409   0.72089   0.13586   1.000
    Ts110   Ts   0.56123   0.64976   0.13450   1.000
    Ts111   Ts   0.49759   0.61918   0.11651   1.000
    Ts112   Ts   0.46018   0.68981   0.11755   1.000
    Ts113   Ts   0.53366   0.68016   0.10114   1.000
    Ts114   Ts   0.48858   0.65417   0.15098   1.000
    Ts115   Ts   0.58792   0.07799   0.17467   1.000
    Ts116   Ts   0.48306   0.21511   0.36553   1.000
    Ts117   Ts   0.44366   0.14506   0.36706   1.000
    Ts118   Ts   0.50748   0.11250   0.38535   1.000
    Ts119   Ts   0.54521   0.18050   0.38528   1.000
    Ts120   Ts   0.47064   0.17643   0.40011   1.000
    Ts121   Ts   0.51787   0.14799   0.35096   1.000
    Ts122   Ts   0.42459   0.57448   0.32734   1.000
    Ts123   Ts   0.97876   0.28510   0.63427   1.000
    Ts124   Ts   0.93839   0.35547   0.63328   1.000
    Ts125   Ts   0.00233   0.38864   0.61518   1.000
    Ts126   Ts   0.04086   0.32022   0.61495   1.000
    Ts127   Ts   0.96663   0.32568   0.59992   1.000
    Ts128   Ts   0.01206   0.35211   0.64927   1.000
    Ts129   Ts   0.91895   0.92729   0.67226   1.000
    Ts130   Ts   0.94035   0.36441   0.16192   1.000
    Ts131   Ts   0.79656   0.08941   0.15877   1.000
    Ts132   Ts   0.07566   0.96312   0.08904   1.000
    Ts133   Ts   0.20711   0.23507   0.08930   1.000
    Ts134   Ts   0.01710   0.66410   0.11855   1.000
    Ts135   Ts   0.91388   0.20130   0.02327   1.000
    Ts136   Ts   0.08146   0.09873   0.22464   1.000
    Ts137   Ts   0.43995   0.12703   0.83839   1.000
    Ts138   Ts   0.28212   0.40360   0.84102   1.000
    Ts139   Ts   0.98597   0.21242   0.13497   1.000
    Ts140   Ts   0.94971   0.14250   0.13357   1.000
    Ts141   Ts   0.01794   0.11272   0.11593   1.000
    Ts142   Ts   0.05124   0.18155   0.11619   1.000
    Ts143   Ts   0.97771   0.17393   0.10039   1.000
    Ts144   Ts   0.02297   0.14758   0.15009   1.000
    Ts145   Ts   0.53837   0.54158   0.91196   1.000
    Ts146   Ts   0.69645   0.27081   0.91497   1.000
    Ts147   Ts   0.51166   0.81930   0.87067   1.000
    Ts148   Ts   0.40602   0.30020   0.97867   1.000
    Ts149   Ts   0.57079   0.39896   0.77765   1.000
    Ts150   Ts   0.55177   0.62967   0.66408   1.000
    Ts151   Ts   0.71099   0.90641   0.65928   1.000
    Ts152   Ts   0.45199   0.04319   0.58830   1.000
    Ts153   Ts   0.29970   0.77209   0.58605   1.000
    Ts154   Ts   0.47833   0.32417   0.62842   1.000
    Ts155   Ts   0.59450   0.79427   0.52430   1.000
    Ts156   Ts   0.42049   0.90439   0.72290   1.000
    Ts157   Ts   0.05846   0.86979   0.33772   1.000
    Ts158   Ts   0.21546   0.59228   0.34079   1.000
    Ts159   Ts   0.95180   0.45724   0.40931   1.000
    Ts160   Ts   0.80291   0.72845   0.41276   1.000
    Ts161   Ts   0.98190   0.17598   0.37282   1.000
    Ts162   Ts   0.09602   0.69907   0.47641   1.000
    Ts163   Ts   0.93171   0.60079   0.27320   1.000
    Ts164   Ts   0.04623   0.62820   0.83612   1.000
    Ts165   Ts   0.20643   0.90370   0.84025   1.000
    Ts166   Ts   0.94590   0.04131   0.91032   1.000
    Ts167   Ts   0.78785   0.77289   0.91015   1.000
    Ts168   Ts   0.97701   0.32410   0.87318   1.000
    Ts169   Ts   0.07165   0.78963   0.97667   1.000
    Ts170   Ts   0.92233   0.90321   0.77521   1.000
    Ts171   Ts   0.56601   0.87318   0.16259   1.000
    Ts172   Ts   0.71494   0.58926   0.15806   1.000
    Ts173   Ts   0.45568   0.46393   0.08931   1.000
    Ts174   Ts   0.30571   0.74529   0.09211   1.000
    Ts175   Ts   0.48896   0.18183   0.12901   1.000
    Ts176   Ts   0.59440   0.70115   0.02251   1.000
    Ts177   Ts   0.43147   0.60170   0.22492   1.000
    Ts178   Ts   0.44728   0.36947   0.33777   1.000
    Ts179   Ts   0.29020   0.09229   0.34214   1.000
    Ts180   Ts   0.55032   0.95674   0.41295   1.000
    Ts181   Ts   0.70050   0.22879   0.41368   1.000
    Ts182   Ts   0.52047   0.67453   0.37464   1.000
    Ts183   Ts   0.40643   0.20431   0.47749   1.000
    Ts184   Ts   0.57972   0.09837   0.27721   1.000
    Ts185   Ts   0.94287   0.13074   0.66139   1.000
    Ts186   Ts   0.78374   0.40732   0.65920   1.000
    Ts187   Ts   0.04604   0.54450   0.58827   1.000
    Ts188   Ts   0.19781   0.27317   0.58653   1.000
    Ts189   Ts   0.01886   0.82440   0.62641   1.000
    Ts190   Ts   0.90460   0.30128   0.52225   1.000
    Ts191   Ts   0.07036   0.40162   0.72315   1.000
loop_
    _geom_bond_atom_site_label_1
    _geom_bond_atom_site_label_2
    _geom_bond_distance
    _geom_bond_site_symmetry_2
    _ccdc_geom_bond_type
    C64    Cd4       2.20050  1_554   S
    C28    Cd13      2.20985  1_554   S
    Cd1    C25       2.23898      .   S
    Cd1    C62       2.21357      .   S
    Cd1    C27       2.21146      .   S
    Cd1    C57       2.21288  1_554   S
    Cd16   C26       2.19859      .   S
    Cd16   C61       2.20562      .   S
    Cd16   C63       2.20582      .   S
    Cd16   C36       2.21099  1_554   S
    C60    Cd0       2.22115      .   S
    C24    Cd15      2.20506      .   S
    C23    Cd0       2.20688      .   S
    C59    Cd15      2.20214  1_565   S
    Cd0    C51       2.19317      .   S
    Cd15   C72       2.19872      .   S
    C29    Cd9       2.20291      .   S
    C65    Cd18      2.19852      .   S
    Cd18   C66       2.19346      .   S
    Cd18   C46       2.20784      .   S
    Cd9    C45       2.19212  1_545   S
    Cd9    C67       2.20564      .   S
    C49    Cd10      2.20715      .   S
    C70    Cd19      2.20673      .   S
    C47    Cd10      2.20800      .   S
    C68    Cd19      2.21084      .   S
    C48    Cd19      2.20113      .   S
    C69    Cd10      2.19839      .   S
    Cd10   C78       2.20926      .   S
    Cd19   C43       2.21079      .   S
    C50    Cd22      2.20941      .   S
    C71    Cd7       2.21019      .   S
    Cd22   C41       2.19947      .   S
    Cd22   C75       2.20961      .   S
    Cd22   C77       2.20805      .   S
    Cd7    C76       2.20119      .   S
    Cd7    C40       2.20992      .   S
    Cd7    C42       2.20481      .   S
    C39    Cd21      2.20559      .   S
    C74    Cd6       2.20895      .   S
    C73    Cd21      2.19173  1_545   S
    C38    Cd6       2.19574      .   S
    Cd21   C58       2.20997      .   S
    Cd6    C37       2.20167      .   S
    C44    Cd3       2.20840      .   S
    C79    Cd12      2.20427      .   S
    Cd3    C30       2.19392  1_565   S
    Cd3    C53       2.19783      .   S
    Cd12   C52       2.19905      .   S
    Cd12   C31       2.19907      .   S
    C35    Cd4       2.20374      .   S
    C56    Cd13      2.21050      .   S
    C54    Cd13      2.21593      .   S
    C55    Cd4       2.19422      .   S
    C33    Cd4       2.20026      .   S
    C34    Cd13      2.19837      .   S
    Cd0    Ts80      0.75544      .   S
    Cd2    Ts81      0.76665      .   S
    Cd2    Ts82      0.76517      .   S
    Cd2    Ts83      0.79363      .   S
    Cd2    Ts84      0.78010      .   S
    Cd2    Ts85      0.77980      .   S
    Cd2    Ts86      0.76315      .   S
    Cd3    Ts87      0.77201      .   S
    Cd5    Ts88      0.76454      .   S
    Cd5    Ts89      0.76683      .   S
    Cd5    Ts90      0.78652      .   S
    Cd5    Ts91      0.78342      .   S
    Cd5    Ts92      0.77819      .   S
    Cd5    Ts93      0.76305      .   S
    Cd6    Ts94      0.76784      .   S
    Cd8    Ts95      0.76544      .   S
    Cd8    Ts96      0.76105      .   S
    Cd8    Ts97      0.78792  1_455   S
    Cd8    Ts98      0.77414  1_455   S
    Cd8    Ts99      0.78880      .   S
    Cd8    Ts100     0.76891  1_455   S
    Cd9    Ts101     0.76797      .   S
    Cd11   Ts102     0.76290      .   S
    Cd11   Ts103     0.76959      .   S
    Cd11   Ts104     0.78009  1_455   S
    Cd11   Ts105     0.79232  1_455   S
    Cd11   Ts106     0.76587      .   S
    Cd11   Ts107     0.76381  1_455   S
    Cd12   Ts108     0.76642      .   S
    Cd14   Ts109     0.76303      .   S
    Cd14   Ts110     0.76564      .   S
    Cd14   Ts111     0.78555      .   S
    Cd14   Ts112     0.76743      .   S
    Cd14   Ts113     0.78641      .   S
    Cd14   Ts114     0.76595      .   S
    Cd15   Ts115     0.76792      .   S
    Cd17   Ts116     0.76412      .   S
    Cd17   Ts117     0.76388      .   S
    Cd17   Ts118     0.78425      .   S
    Cd17   Ts119     0.78080      .   S
    Cd17   Ts120     0.78334      .   S
    Cd17   Ts121     0.76463      .   S
    Cd18   Ts122     0.76577      .   S
    Cd20   Ts123     0.76842      .   S
    Cd20   Ts124     0.76227      .   S
    Cd20   Ts125     0.79165  1_655   S
    Cd20   Ts126     0.77779  1_655   S
    Cd20   Ts127     0.78042      .   S
    Cd20   Ts128     0.76323  1_655   S
    Cd21   Ts129     0.76762      .   S
    C23    Ts130     0.38983      .   S
    C24    Ts131     0.38971      .   S
    C25    Ts132     0.39034      .   S
    C26    Ts133     0.38994      .   S
    C27    Ts134     0.38984      .   S
    C28    Ts135     0.38997      .   S
    C29    Ts136     0.38981      .   S
    C30    Ts137     0.38953      .   S
    C31    Ts138     0.38968      .   S
    Cd32   Ts139     0.75974  1_455   S
    Cd32   Ts140     0.76403  1_455   S
    Cd32   Ts141     0.76846      .   S
    Cd32   Ts142     0.78774      .   S
    Cd32   Ts143     0.77746  1_455   S
    Cd32   Ts144     0.76794      .   S
    C33    Ts145     0.38994      .   S
    C34    Ts146     0.38999      .   S
    C35    Ts147     0.38961      .   S
    C36    Ts148     0.39006      .   S
    C37    Ts149     0.38973      .   S
    C38    Ts150     0.38966      .   S
    C39    Ts151     0.38978      .   S
    C40    Ts152     0.39010      .   S
    C41    Ts153     0.39003      .   S
    C42    Ts154     0.38985      .   S
    C43    Ts155     0.39018      .   S
    C44    Ts156     0.38979      .   S
    C45    Ts157     0.38965      .   S
    C46    Ts158     0.38996      .   S
    C47    Ts159     0.38996      .   S
    C48    Ts160     0.38993      .   S
    C49    Ts161     0.38975      .   S
    C50    Ts162     0.39028      .   S
    C51    Ts163     0.38980      .   S
    C52    Ts164     0.38971      .   S
    C53    Ts165     0.38970      .   S
    C54    Ts166     0.39011      .   S
    C55    Ts167     0.38994      .   S
    C56    Ts168     0.38925      .   S
    C57    Ts169     0.39002      .   S
    C58    Ts170     0.38979      .   S
    C59    Ts171     0.38972      .   S
    C60    Ts172     0.38988      .   S
    C61    Ts173     0.39038      .   S
    C62    Ts174     0.39016      .   S
    C63    Ts175     0.38965      .   S
    C64    Ts176     0.38997      .   S
    C65    Ts177     0.38973      .   S
    C66    Ts178     0.38948      .   S
    C67    Ts179     0.38972      .   S
    C68    Ts180     0.39004      .   S
    C69    Ts181     0.38996      .   S
    C70    Ts182     0.38965      .   S
    C71    Ts183     0.39016      .   S
    C72    Ts184     0.38974      .   S
    C73    Ts185     0.38971      .   S
    C74    Ts186     0.38973      .   S
    C75    Ts187     0.39000      .   S
    C76    Ts188     0.38998      .   S
    C77    Ts189     0.38974      .   S
    C78    Ts190     0.39011      .   S
    C79    Ts191     0.38967      .   S
