# CIF file generated by openbabel 2.4.90, see http://openbabel.sf.net
data_I
_chemical_name_common ''
_cell_length_a 10.9615
_cell_length_b 12.758
_cell_length_c 20.066
_cell_angle_alpha 90.035
_cell_angle_beta 90.047
_cell_angle_gamma 90.126
_space_group_name_H-M_alt 'P 1'
_space_group_name_Hall 'P 1'
loop_
    _symmetry_equiv_pos_as_xyz
    x,y,z
loop_
    _atom_site_label
    _atom_site_type_symbol
    _atom_site_fract_x
    _atom_site_fract_y
    _atom_site_fract_z
    _atom_site_occupancy
    Lv0     Lv   0.20837   0.47521   0.12125   1.000
    Lv1     Lv   0.70750   0.97501   0.87883   1.000
    Lv2     Lv   0.92579   0.23441   0.10194   1.000
    Lv3     Lv   0.29224   0.02505   0.12133   1.000
    Lv4     Lv   0.07418   0.76569   0.89799   1.000
    Lv5     Lv   0.79220   0.47506   0.37856   1.000
    Lv6     Lv   0.70808   0.02471   0.37878   1.000
    Lv7     Lv   0.79148   0.52485   0.87883   1.000
    Lv8     Lv   0.57465   0.26560   0.10216   1.000
    Lv9     Lv   0.92530   0.76569   0.60215   1.000
    Lv10    Lv   0.20743   0.52489   0.62144   1.000
    Lv11    Lv   0.07468   0.23425   0.39778   1.000
    Lv12    Lv   0.57412   0.73431   0.60213   1.000
    Lv13    Lv   0.42573   0.26565   0.39790   1.000
    Lv14    Lv   0.42519   0.73451   0.89786   1.000
    Lv15    Lv   0.29162   0.97525   0.62123   1.000
