# CIF file generated by openbabel 2.4.90, see http://openbabel.sf.net
data_I
_chemical_name_common ''
_cell_length_a 20.636
_cell_length_b 15.499
_cell_length_c 23.722
_cell_angle_alpha 89.798
_cell_angle_beta 89.984
_cell_angle_gamma 90.015
_space_group_name_H-M_alt 'P 1'
_space_group_name_Hall 'P 1'
loop_
    _symmetry_equiv_pos_as_xyz
    x,y,z
loop_
    _atom_site_label
    _atom_site_type_symbol
    _atom_site_fract_x
    _atom_site_fract_y
    _atom_site_fract_z
    _atom_site_occupancy
    Zr0     Zr   0.30518   0.30355   0.01989   1.000
    Zr1     Zr   0.80519   0.30355   0.01989   1.000
    Zr2     Zr   0.20534   0.13719   0.98016   1.000
    Zr3     Zr   0.70535   0.13719   0.98016   1.000
    Zr4     Zr   0.44733   0.69600   0.51898   1.000
    Zr5     Zr   0.94734   0.69600   0.51898   1.000
    Zr6     Zr   0.04715   0.86317   0.48107   1.000
    Zr7     Zr   0.54716   0.86317   0.48107   1.000
    Zr8     Zr   0.19733   0.80400   0.48100   1.000
    Zr9     Zr   0.69734   0.80400   0.48103   1.000
    Zr10    Zr   0.29713   0.63683   0.51897   1.000
    Zr11    Zr   0.79714   0.63683   0.51890   1.000
    Zr12    Zr   0.05516   0.19645   0.98014   1.000
    Zr13    Zr   0.55518   0.19645   0.98014   1.000
    Zr14    Zr   0.45536   0.36283   0.01983   1.000
    Zr15    Zr   0.95538   0.36283   0.01980   1.000
    N16     N    0.89852   0.85580   0.38476   1.000
    O17     O    0.86098   0.77406   0.45052   1.000
    O18     O    0.89853   0.78886   0.45054   1.000
    O19     O    0.82115   0.84003   0.42879   1.000
    O20     O    0.95110   0.84820   0.43500   1.000
    O21     O    0.92615   0.80641   0.44447   1.000
    N22     N    0.35367   0.14488   0.88543   1.000
    O23     O    0.30119   0.15218   0.93530   1.000
    O24     O    0.32615   0.19377   0.94523   1.000
    O25     O    0.39136   0.22607   0.95132   1.000
    O26     O    0.35382   0.21125   0.95133   1.000
    O27     O    0.43113   0.16043   0.92907   1.000
    N28     N    0.87974   0.48623   0.27338   1.000
    O29     O    0.91063   0.43667   0.16448   1.000
    O30     O    0.91004   0.57084   0.37991   1.000
    O31     O    0.84816   0.40610   0.16575   1.000
    O32     O    0.84579   0.54689   0.37895   1.000
    N33     N    0.62974   0.01375   0.72663   1.000
    O34     O    0.59579   0.95308   0.62107   1.000
    O35     O    0.66003   0.92915   0.62007   1.000
    O36     O    0.66062   0.06333   0.83552   1.000
    O37     O    0.59815   0.09390   0.83427   1.000
    N38     N    0.37202   0.51221   0.77313   1.000
    O39     O    0.34209   0.42824   0.88024   1.000
    O40     O    0.34121   0.56166   0.66387   1.000
    O41     O    0.40362   0.59230   0.66503   1.000
    O42     O    0.40630   0.45233   0.87924   1.000
    N43     N    0.87189   0.51220   0.77314   1.000
    O44     O    0.84203   0.42824   0.88025   1.000
    O45     O    0.84115   0.56165   0.66386   1.000
    O46     O    0.90356   0.59230   0.66504   1.000
    O47     O    0.90624   0.45232   0.87923   1.000
    N48     N    0.14848   0.64421   0.61526   1.000
    O49     O    0.20107   0.65180   0.56501   1.000
    O50     O    0.17612   0.69360   0.55552   1.000
    O51     O    0.11096   0.72594   0.54948   1.000
    O52     O    0.14850   0.71115   0.54947   1.000
    O53     O    0.07112   0.65997   0.57123   1.000
    N54     N    0.64849   0.64421   0.61526   1.000
    O55     O    0.70108   0.65180   0.56500   1.000
    O56     O    0.67613   0.69360   0.55553   1.000
    O57     O    0.61097   0.72594   0.54949   1.000
    O58     O    0.64852   0.71115   0.54948   1.000
    O59     O    0.57112   0.65997   0.57123   1.000
    N60     N    0.39851   0.85580   0.38475   1.000
    O61     O    0.36097   0.77406   0.45053   1.000
    O62     O    0.39852   0.78886   0.45053   1.000
    O63     O    0.32114   0.84003   0.42877   1.000
    O64     O    0.45110   0.84820   0.43501   1.000
    O65     O    0.42614   0.80641   0.44448   1.000
    N66     N    0.12203   0.98778   0.22689   1.000
    O67     O    0.09122   0.93834   0.33616   1.000
    O68     O    0.15363   0.90770   0.33495   1.000
    O69     O    0.15629   0.04768   0.12077   1.000
    O70     O    0.09209   0.07176   0.11980   1.000
    N71     N    0.37973   0.48623   0.27338   1.000
    O72     O    0.41062   0.43667   0.16449   1.000
    O73     O    0.34815   0.40610   0.16575   1.000
    O74     O    0.34578   0.54690   0.37896   1.000
    O75     O    0.41003   0.57085   0.37992   1.000
    N76     N    0.85368   0.14488   0.88543   1.000
    O77     O    0.80120   0.15218   0.93530   1.000
    O78     O    0.82616   0.19377   0.94523   1.000
    O79     O    0.89137   0.22608   0.95131   1.000
    O80     O    0.85383   0.21125   0.95133   1.000
    O81     O    0.93114   0.16043   0.92907   1.000
    N82     N    0.12973   0.01375   0.72664   1.000
    O83     O    0.16002   0.92915   0.62008   1.000
    O84     O    0.16061   0.06333   0.83552   1.000
    O85     O    0.09814   0.09389   0.83428   1.000
    O86     O    0.09578   0.95308   0.62107   1.000
    N87     N    0.62204   0.98778   0.22689   1.000
    O88     O    0.59124   0.93834   0.33616   1.000
    O89     O    0.65365   0.90770   0.33496   1.000
    O90     O    0.65630   0.04768   0.12077   1.000
    O91     O    0.59210   0.07177   0.11980   1.000
    N92     N    0.60367   0.35511   0.11457   1.000
    O93     O    0.68114   0.33956   0.07091   1.000
    O94     O    0.55120   0.34782   0.06470   1.000
    O95     O    0.57616   0.30623   0.05478   1.000
    O96     O    0.64136   0.27393   0.04868   1.000
    O97     O    0.60382   0.28874   0.04867   1.000
    N98     N    0.10366   0.35511   0.11457   1.000
    O99     O    0.05120   0.34782   0.06469   1.000
    O100    O    0.07615   0.30623   0.05478   1.000
    O101    O    0.14135   0.27393   0.04868   1.000
    O102    O    0.10381   0.28874   0.04867   1.000
    O103    O    0.18113   0.33956   0.07091   1.000
loop_
    _geom_bond_atom_site_label_1
    _geom_bond_atom_site_label_2
    _geom_bond_distance
    _geom_bond_site_symmetry_2
    _ccdc_geom_bond_type
    N16    O17       2.15022      .   S
    Zr11   O17       2.97722      .   S
    N16    O18       1.87086      .   S
    Zr5    O18       2.38892      .   S
    N16    O19       1.92273      .   S
    Zr9    O19       2.89272      .   S
    N16    O20       1.61597      .   S
    Zr6    O20       2.27579  1_455   S
    N16    O21       1.70612      .   S
    Zr5    O21       2.49454      .   S
    N22    O23       1.60791      .   S
    Zr2    O23       2.25741      .   S
    N22    O24       1.70780      .   S
    Zr0    O24       2.49796  1_554   S
    N22    O25       2.15544      .   S
    Zr14   O25       2.98368  1_554   S
    N22    O26       1.87453      .   S
    Zr0    O26       2.39051  1_554   S
    N22    O27       1.92041      .   S
    Zr13   O27       2.88748      .   S
    N28    O29       2.77195      .   S
    Zr15   O29       3.73735      .   S
    N28    O30       2.91899      .   S
    Zr5    O30       3.90955      .   S
    N28    O31       2.91716      .   S
    Zr1    O31       3.91457      .   S
    N28    O32       2.76805      .   S
    Zr11   O32       3.74223      .   S
    N33    O34       2.76823  1_545   S
    Zr7    O34       3.74329      .   S
    N33    O35       2.91937  1_545   S
    Zr9    O35       3.90883      .   S
    N33    O36       2.77190      .   S
    Zr3    O36       3.73683      .   S
    N33    O37       2.91717      .   S
    Zr13   O37       3.91460      .   S
    N38    O39       2.91663      .   S
    Zr0    O39       3.90422  1_554   S
    N38    O40       2.77418      .   S
    Zr10   O40       3.73820      .   S
    N38    O41       2.91847      .   S
    Zr4    O41       3.91903      .   S
    N38    O42       2.77175      .   S
    Zr14   O42       3.74734  1_554   S
    N43    O44       2.91624      .   S
    Zr1    O44       3.90379  1_554   S
    N43    O45       2.77434      .   S
    Zr11   O45       3.73910      .   S
    N43    O46       2.91890      .   S
    Zr5    O46       3.91949      .   S
    N43    O47       2.77185      .   S
    Zr15   O47       3.74716  1_554   S
    N48    O49       1.61578      .   S
    Zr10   O49       2.27528      .   S
    N48    O50       1.70627      .   S
    Zr8    O50       2.49449      .   S
    N48    O51       2.15080      .   S
    Zr6    O51       2.97828      .   S
    N48    O52       1.87105      .   S
    Zr8    O52       2.38877      .   S
    N48    O53       1.92318      .   S
    Zr5    O53       2.89304  1_655   S
    N54    O55       1.61613      .   S
    Zr11   O55       2.27592      .   S
    N54    O56       1.70616      .   S
    Zr9    O56       2.49414      .   S
    N54    O57       2.15083      .   S
    Zr7    O57       2.97830      .   S
    N54    O58       1.87093      .   S
    Zr9    O58       2.38845      .   S
    N54    O59       1.92330      .   S
    Zr4    O59       2.89338      .   S
    N60    O61       2.15063      .   S
    Zr10   O61       2.97799      .   S
    N60    O62       1.87099      .   S
    Zr4    O62       2.38903      .   S
    N60    O63       1.92265      .   S
    Zr8    O63       2.89259      .   S
    N60    O64       1.61643      .   S
    Zr7    O64       2.27602      .   S
    N60    O65       1.70655      .   S
    Zr4    O65       2.49440      .   S
    N66    O67       2.77400      .   S
    Zr6    O67       3.73785      .   S
    N66    O68       2.91831      .   S
    Zr8    O68       3.91950      .   S
    N66    O69       2.77142  1_565   S
    Zr2    O69       3.74694  1_556   S
    N66    O70       2.91678  1_565   S
    Zr12   O70       3.90483  1_556   S
    N71    O72       2.77177      .   S
    Zr14   O72       3.73683      .   S
    N71    O73       2.91715      .   S
    Zr0    O73       3.91456      .   S
    N71    O74       2.76846      .   S
    Zr10   O74       3.74334      .   S
    N71    O75       2.91921      .   S
    Zr4    O75       3.90935      .   S
    N76    O77       1.60791      .   S
    Zr3    O77       2.25741      .   S
    N76    O78       1.70780      .   S
    Zr1    O78       2.49795  1_554   S
    N76    O79       2.15532      .   S
    Zr15   O79       2.98339  1_554   S
    N76    O80       1.87453      .   S
    Zr1    O80       2.39050  1_554   S
    N76    O81       1.92031      .   S
    Zr12   O81       2.88716  1_455   S
    N82    O83       2.91924  1_545   S
    Zr8    O83       3.90961      .   S
    N82    O84       2.77186      .   S
    Zr2    O84       3.73680      .   S
    N82    O85       2.91714      .   S
    Zr12   O85       3.91457      .   S
    N82    O86       2.76826  1_545   S
    Zr6    O86       3.74333      .   S
    N87    O88       2.77401      .   S
    Zr7    O88       3.73788      .   S
    N87    O89       2.91850      .   S
    Zr9    O89       3.91998      .   S
    N87    O90       2.77140  1_565   S
    Zr3    O90       3.74691  1_556   S
    N87    O91       2.91677  1_565   S
    Zr13   O91       3.90480  1_556   S
    N92    O93       1.92031      .   S
    Zr1    O93       2.88672      .   S
    N92    O94       1.60814      .   S
    Zr14   O94       2.25793      .   S
    N92    O95       1.70764      .   S
    Zr13   O95       2.49767  1_556   S
    N92    O96       2.15523      .   S
    Zr3    O96       2.98355  1_556   S
    N92    O97       1.87430      .   S
    Zr13   O97       2.39024  1_556   S
    N98    O99       1.60821      .   S
    Zr15   O99       2.25787  1_655   S
    N98    O100      1.70766      .   S
    Zr12   O100      2.49768  1_556   S
    N98    O101      2.15524      .   S
    Zr2    O101      2.98355  1_556   S
    N98    O102      1.87432      .   S
    Zr12   O102      2.39026  1_556   S
    N98    O103      1.92031      .   S
    Zr0    O103      2.88671      .   S
