# CIF file generated by openbabel 2.4.90, see http://openbabel.sf.net
data_I
_chemical_name_common ''
_cell_length_a 14.039
_cell_length_b 17.601
_cell_length_c 19.954
_cell_angle_alpha 102.064
_cell_angle_beta 104.579
_cell_angle_gamma 83.83
_space_group_name_H-M_alt 'P 1'
_space_group_name_Hall 'P 1'
loop_
    _symmetry_equiv_pos_as_xyz
    x,y,z
loop_
    _atom_site_label
    _atom_site_type_symbol
    _atom_site_fract_x
    _atom_site_fract_y
    _atom_site_fract_z
    _atom_site_occupancy
    N0      N    0.21004   0.85894   0.45900   1.000
    N1      N    0.21005   0.35895   0.45899   1.000
    N2      N    0.71072   0.85903   0.45908   1.000
    N3      N    0.29051   0.14109   0.54034   1.000
    N4      N    0.29051   0.64109   0.54038   1.000
    N5      N    0.79049   0.64110   0.54030   1.000
    N6      N    0.79050   0.14110   0.54031   1.000
    N7      N    0.29051   0.14109   0.04038   1.000
    N8      N    0.29052   0.64109   0.04037   1.000
    N9      N    0.79050   0.14110   0.04031   1.000
    N10     N    0.79049   0.64110   0.04025   1.000
    N11     N    0.71073   0.35903   0.45909   1.000
    N12     N    0.71072   0.85903   0.95905   1.000
    N13     N    0.21005   0.35894   0.95872   1.000
    N14     N    0.21004   0.85894   0.95899   1.000
    N15     N    0.71073   0.35903   0.95908   1.000
    Zr16    Zr   0.88451   0.26507   0.81578   1.000
    O17     O    0.86032   0.22843   0.88347   1.000
    O18     O    0.85302   0.22801   0.73306   1.000
    O19     O    0.83565   0.30505   0.85389   1.000
    O20     O    0.98658   0.28704   0.85309   1.000
    Zr21    Zr   0.38456   0.76500   0.81584   1.000
    O22     O    0.48679   0.78703   0.85327   1.000
    O23     O    0.35306   0.72798   0.73312   1.000
    O24     O    0.33550   0.80497   0.85391   1.000
    O25     O    0.36035   0.72838   0.88353   1.000
    Zr26    Zr   0.61606   0.73504   0.68348   1.000
    O27     O    0.64766   0.77208   0.76624   1.000
    O28     O    0.66501   0.69507   0.64532   1.000
    O29     O    0.51398   0.71304   0.64617   1.000
    O30     O    0.64049   0.77179   0.61589   1.000
    Zr31    Zr   0.61607   0.23504   0.18349   1.000
    O32     O    0.51399   0.21304   0.14618   1.000
    O33     O    0.64766   0.27208   0.26625   1.000
    O34     O    0.64050   0.27179   0.11590   1.000
    O35     O    0.66502   0.19507   0.14533   1.000
    Zr36    Zr   0.88452   0.76507   0.31577   1.000
    O37     O    0.86032   0.72842   0.38346   1.000
    O38     O    0.85302   0.72801   0.23304   1.000
    O39     O    0.83566   0.80504   0.35388   1.000
    O40     O    0.98658   0.78704   0.35315   1.000
    Zr41    Zr   0.75097   0.49985   0.74976   1.000
    O42     O    0.76794   0.54031   0.68758   1.000
    O43     O    0.73551   0.44966   0.66638   1.000
    O44     O    0.76646   0.55017   0.83304   1.000
    O45     O    0.73362   0.45957   0.81188   1.000
    Zr46    Zr   0.75098   0.99986   0.24977   1.000
    O47     O    0.76646   0.05017   0.33315   1.000
    O48     O    0.73551   0.94966   0.16637   1.000
    O49     O    0.73362   0.95958   0.31188   1.000
    O50     O    0.76795   0.04032   0.18759   1.000
    Zr51    Zr   0.25018   0.49998   0.24968   1.000
    O52     O    0.23445   0.44974   0.16620   1.000
    O53     O    0.26596   0.55024   0.33311   1.000
    O54     O    0.26745   0.54037   0.18755   1.000
    O55     O    0.23295   0.45963   0.31182   1.000
    Zr56    Zr   0.38456   0.26501   0.31584   1.000
    O57     O    0.35306   0.22798   0.23312   1.000
    O58     O    0.48680   0.28703   0.35328   1.000
    O59     O    0.36035   0.22838   0.38352   1.000
    O60     O    0.33551   0.30498   0.35392   1.000
    Zr61    Zr   0.88451   0.26507   0.31578   1.000
    O62     O    0.86032   0.22843   0.38347   1.000
    O63     O    0.83566   0.30505   0.35389   1.000
    O64     O    0.85302   0.22801   0.23306   1.000
    O65     O    0.98658   0.28705   0.35315   1.000
    Zr66    Zr   0.88451   0.76507   0.81577   1.000
    O67     O    0.83565   0.80504   0.85387   1.000
    O68     O    0.85302   0.72801   0.73305   1.000
    O69     O    0.98658   0.78704   0.85315   1.000
    O70     O    0.86032   0.72842   0.88345   1.000
    Zr71    Zr   0.11580   0.23508   0.18348   1.000
    O72     O    0.14008   0.27170   0.11574   1.000
    O73     O    0.16486   0.19510   0.14536   1.000
    O74     O    0.01379   0.21307   0.14615   1.000
    O75     O    0.14734   0.27209   0.26622   1.000
    Zr76    Zr   0.11580   0.73508   0.18348   1.000
    O77     O    0.14008   0.77169   0.11580   1.000
    O78     O    0.01379   0.71307   0.14613   1.000
    O79     O    0.16486   0.69509   0.14535   1.000
    O80     O    0.14734   0.77208   0.26622   1.000
    Zr81    Zr   0.75098   0.49986   0.24976   1.000
    O82     O    0.76646   0.55017   0.33314   1.000
    O83     O    0.73362   0.45958   0.31188   1.000
    O84     O    0.76794   0.54031   0.18756   1.000
    O85     O    0.73551   0.44966   0.16638   1.000
    Zr86    Zr   0.61606   0.23504   0.68340   1.000
    O87     O    0.64766   0.27208   0.76620   1.000
    O88     O    0.66502   0.19507   0.64527   1.000
    O89     O    0.64050   0.27179   0.61584   1.000
    O90     O    0.51399   0.21303   0.64611   1.000
    Zr91    Zr   0.38456   0.76501   0.31584   1.000
    O92     O    0.36035   0.72838   0.38353   1.000
    O93     O    0.48680   0.78703   0.35327   1.000
    O94     O    0.33551   0.80497   0.35392   1.000
    O95     O    0.35306   0.72798   0.23312   1.000
    Zr96    Zr   0.11580   0.23508   0.68348   1.000
    O97     O    0.01379   0.21307   0.64615   1.000
    O98     O    0.16486   0.19509   0.64526   1.000
    O99     O    0.14008   0.27170   0.61580   1.000
    O100    O    0.14734   0.27209   0.76615   1.000
    Zr101   Zr   0.75097   0.99986   0.74977   1.000
    O102    O    0.76794   0.04031   0.68759   1.000
    O103    O    0.73362   0.95958   0.81187   1.000
    O104    O    0.76646   0.05017   0.83315   1.000
    O105    O    0.73551   0.94966   0.66638   1.000
    Zr106   Zr   0.25018   0.49997   0.74968   1.000
    O107    O    0.26744   0.54037   0.68756   1.000
    O108    O    0.23445   0.44974   0.66627   1.000
    O109    O    0.23295   0.45963   0.81174   1.000
    O110    O    0.26596   0.55024   0.83311   1.000
    Zr111   Zr   0.25018   0.99998   0.24967   1.000
    O112    O    0.26744   0.04038   0.18755   1.000
    O113    O    0.23444   0.94975   0.16626   1.000
    O114    O    0.26596   0.05025   0.33310   1.000
    O115    O    0.23295   0.95963   0.31181   1.000
    Zr116   Zr   0.61606   0.73504   0.18348   1.000
    O117    O    0.64049   0.77179   0.11588   1.000
    O118    O    0.66501   0.69507   0.14531   1.000
    O119    O    0.64766   0.77209   0.26625   1.000
    O120    O    0.51399   0.71304   0.14617   1.000
    Zr121   Zr   0.25018   0.99998   0.74968   1.000
    O122    O    0.26596   0.05025   0.83311   1.000
    O123    O    0.23294   0.95963   0.81182   1.000
    O124    O    0.26744   0.04037   0.68755   1.000
    O125    O    0.23444   0.94974   0.66627   1.000
    Zr126   Zr   0.11580   0.73508   0.68348   1.000
    O127    O    0.01379   0.71307   0.64614   1.000
    O128    O    0.16486   0.69509   0.64536   1.000
    O129    O    0.14734   0.77208   0.76622   1.000
    O130    O    0.14007   0.77169   0.61580   1.000
    Zr131   Zr   0.38456   0.26500   0.81584   1.000
    O132    O    0.48679   0.28703   0.85328   1.000
    O133    O    0.36035   0.22838   0.88353   1.000
    O134    O    0.35306   0.22798   0.73311   1.000
    O135    O    0.33551   0.30497   0.85385   1.000
loop_
    _geom_bond_atom_site_label_1
    _geom_bond_atom_site_label_2
    _geom_bond_distance
    _geom_bond_site_symmetry_2
    _ccdc_geom_bond_type
    Zr16   O17       1.73151      .   S
    N9     O17       4.12257  1_554   S
    Zr16   O18       1.60934      .   S
    N6     O18       3.74614      .   S
    Zr16   O19       1.21610      .   S
    N15    O19       3.00774      .   S
    Zr16   O20       1.48958      .   S
    N13    O20       3.50657  1_455   S
    Zr21   O22       1.49232      .   S
    N12    O22       3.51312      .   S
    Zr21   O23       1.60924      .   S
    N4     O23       3.74575      .   S
    Zr21   O24       1.21742      .   S
    N14    O24       3.01139      .   S
    Zr21   O25       1.73138      .   S
    N8     O25       4.12234  1_554   S
    Zr26   O27       1.61004      .   S
    N12    O27       3.74737      .   S
    Zr26   O28       1.21762      .   S
    N5     O28       3.01070      .   S
    Zr26   O29       1.48981      .   S
    N4     O29       3.50782      .   S
    Zr26   O30       1.73214      .   S
    N2     O30       4.12402      .   S
    Zr31   O32       1.48986      .   S
    N7     O32       3.50793      .   S
    Zr31   O33       1.61010      .   S
    N11    O33       3.74781      .   S
    Zr31   O34       1.73217      .   S
    N15    O34       4.12407  1_556   S
    Zr31   O35       1.21762      .   S
    N9     O35       3.01067      .   S
    Zr36   O37       1.73152      .   S
    N5     O37       4.12259      .   S
    Zr36   O38       1.60953      .   S
    N10    O38       3.74671      .   S
    Zr36   O39       1.21615      .   S
    N2     O39       3.00783      .   S
    Zr36   O40       1.48984      .   S
    N0     O40       3.50780  1_455   S
    Zr41   O42       1.63036      .   S
    N5     O42       3.82783      .   S
    Zr41   O43       1.68551      .   S
    N11    O43       4.05109      .   S
    Zr41   O44       1.68441      .   S
    N10    O44       4.05204  1_554   S
    Zr41   O45       1.62933      .   S
    N15    O45       3.82538      .   S
    Zr46   O47       1.68603  1_565   S
    N6     O47       4.05104      .   S
    Zr46   O48       1.68576      .   S
    N12    O48       4.05173  1_556   S
    Zr46   O49       1.62920      .   S
    N2     O49       3.82537      .   S
    Zr46   O50       1.63033  1_565   S
    N9     O50       3.82775      .   S
    Zr51   O52       1.68716      .   S
    N13    O52       4.05574  1_556   S
    Zr51   O53       1.68649      .   S
    N4     O53       4.05180      .   S
    Zr51   O54       1.63024      .   S
    N8     O54       3.82776      .   S
    Zr51   O55       1.62983      .   S
    N1     O55       3.82637      .   S
    Zr56   O57       1.60926      .   S
    N7     O57       3.74581      .   S
    Zr56   O58       1.49238      .   S
    N11    O58       3.51332      .   S
    Zr56   O59       1.73125      .   S
    N3     O59       4.12204      .   S
    Zr56   O60       1.21753      .   S
    N1     O60       3.01118      .   S
    Zr61   O62       1.73151      .   S
    N6     O62       4.12258      .   S
    Zr61   O63       1.21611      .   S
    N11    O63       3.00776      .   S
    Zr61   O64       1.60933      .   S
    N9     O64       3.74611      .   S
    Zr61   O65       1.48980      .   S
    N1     O65       3.50783  1_455   S
    Zr66   O67       1.21605      .   S
    N12    O67       3.00746      .   S
    Zr66   O68       1.60933      .   S
    N5     O68       3.74611      .   S
    Zr66   O69       1.48983      .   S
    N14    O69       3.50777  1_455   S
    Zr66   O70       1.73129      .   S
    N10    O70       4.12194  1_554   S
    Zr71   O72       1.73267      .   S
    N13    O72       4.12599  1_556   S
    Zr71   O73       1.21828      .   S
    N7     O73       3.01177      .   S
    Zr71   O74       1.48908      .   S
    N9     O74       3.50636  1_655   S
    Zr71   O75       1.60950      .   S
    N1     O75       3.74630      .   S
    Zr76   O77       1.73145      .   S
    N14    O77       4.12231  1_556   S
    Zr76   O78       1.48917      .   S
    N10    O78       3.50662  1_655   S
    Zr76   O79       1.21830      .   S
    N8     O79       3.01186      .   S
    Zr76   O80       1.60954      .   S
    N0     O80       3.74640      .   S
    Zr81   O82       1.68607      .   S
    N5     O82       4.05106      .   S
    Zr81   O83       1.62933      .   S
    N11    O83       3.82542      .   S
    Zr81   O84       1.63056      .   S
    N10    O84       3.82841      .   S
    Zr81   O85       1.68552      .   S
    N15    O85       4.05111  1_556   S
    Zr86   O87       1.61068      .   S
    N15    O87       3.74878      .   S
    Zr86   O88       1.21719      .   S
    N6     O88       3.00983      .   S
    Zr86   O89       1.73157      .   S
    N11    O89       4.12309      .   S
    Zr86   O90       1.48974      .   S
    N3     O90       3.50772      .   S
    Zr91   O92       1.73145      .   S
    N4     O92       4.12253      .   S
    Zr91   O93       1.49234      .   S
    N2     O93       3.51323      .   S
    Zr91   O94       1.21757      .   S
    N0     O94       3.01132      .   S
    Zr91   O95       1.60928      .   S
    N8     O95       3.74589      .   S
    Zr96   O97       1.48908      .   S
    N6     O97       3.50635  1_655   S
    Zr96   O98       1.21951      .   S
    N3     O98       3.01084      .   S
    Zr96   O99       1.73146      .   S
    N1     O99       4.12240      .   S
    Zr96   O100      1.60833      .   S
    N13    O100      3.74273      .   S
    Zr101  O102      1.63035  1_565   S
    N6     O102      3.82781      .   S
    Zr101  O103      1.62915      .   S
    N12    O103      3.82486      .   S
    Zr101  O104      1.68605  1_565   S
    N9     O104      4.05108  1_554   S
    Zr101  O105      1.68563      .   S
    N2     O105      4.05131      .   S
    Zr106  O107      1.63020      .   S
    N4     O107      3.82765      .   S
    Zr106  O108      1.68601      .   S
    N1     O108      4.05202      .   S
    Zr106  O109      1.62845      .   S
    N13    O109      3.82293      .   S
    Zr106  O110      1.68645      .   S
    N8     O110      4.05167  1_554   S
    Zr111  O112      1.63014  1_565   S
    N7     O112      3.82754      .   S
    Zr111  O113      1.68597      .   S
    N14    O113      4.05192  1_556   S
    Zr111  O114      1.68638  1_565   S
    N3     O114      4.05138      .   S
    Zr111  O115      1.62995      .   S
    N0     O115      3.82665      .   S
    Zr116  O117      1.73224      .   S
    N12    O117      4.12439  1_556   S
    Zr116  O118      1.21776      .   S
    N10    O118      3.01120      .   S
    Zr116  O119      1.61017      .   S
    N2     O119      3.74776      .   S
    Zr116  O120      1.48983      .   S
    N8     O120      3.50789      .   S
    Zr121  O122      1.68647  1_565   S
    N7     O122      4.05174  1_554   S
    Zr121  O123      1.62985      .   S
    N14    O123      3.82643      .   S
    Zr121  O124      1.63035  1_565   S
    N3     O124      3.82812      .   S
    Zr121  O125      1.68600      .   S
    N0     O125      4.05193      .   S
    Zr126  O127      1.48911      .   S
    N5     O127      3.50640  1_655   S
    Zr126  O128      1.21828      .   S
    N4     O128      3.01176      .   S
    Zr126  O129      1.60950      .   S
    N14    O129      3.74631      .   S
    Zr126  O130      1.73144      .   S
    N0     O130      4.12226      .   S
    Zr131  O132      1.49238      .   S
    N15    O132      3.51331      .   S
    Zr131  O133      1.73141      .   S
    N7     O133      4.12243  1_554   S
    Zr131  O134      1.60940      .   S
    N3     O134      3.74625      .   S
    Zr131  O135      1.21665      .   S
    N13    O135      3.00802      .   S
