# CIF file generated by openbabel 2.4.90, see http://openbabel.sf.net
data_I
_chemical_name_common ''
_cell_length_a 7.816
_cell_length_b 10.681
_cell_length_c 17.955
_cell_angle_alpha 89.939
_cell_angle_beta 89.762
_cell_angle_gamma 89.996
_space_group_name_H-M_alt 'P 1'
_space_group_name_Hall 'P 1'
loop_
    _symmetry_equiv_pos_as_xyz
    x,y,z
loop_
    _atom_site_label
    _atom_site_type_symbol
    _atom_site_fract_x
    _atom_site_fract_y
    _atom_site_fract_z
    _atom_site_occupancy
    Ca0     Ca   0.19348   0.73573   0.64550   1.000
    Ca1     Ca   0.68994   0.76411   0.14595   1.000
    Ca2     Ca   0.80631   0.26320   0.35441   1.000
    H3      H    0.57084   0.12296   0.75790   1.000
    H4      H    0.26859   0.43676   0.56893   1.000
    H5      H    0.15069   0.03714   0.69308   1.000
    H6      H    0.93256   0.62272   0.74192   1.000
    H7      H    0.23524   0.93763   0.93092   1.000
    H8      H    0.35327   0.53682   0.80665   1.000
    H9      H    0.42862   0.87830   0.24224   1.000
    Ca10    Ca   0.30972   0.23599   0.85444   1.000
    H11     H    0.73131   0.56111   0.43101   1.000
    H12     H    0.84976   0.96235   0.30701   1.000
    H13     H    0.06779   0.37761   0.25800   1.000
    H14     H    0.76835   0.06290   0.06887   1.000
    H15     H    0.64695   0.46155   0.19314   1.000
    C16     C    0.69130   0.27643   0.77920   1.000
    C17     C    0.77001   0.43536   0.51381   1.000
    C18     C    0.04253   0.19096   0.72554   1.000
    C19     C    0.81237   0.77663   0.72079   1.000
    C20     C    0.72774   0.93644   0.98644   1.000
    C21     C    0.46075   0.69105   0.77428   1.000
    C22     C    0.30841   0.72477   0.22103   1.000
    C23     C    0.22964   0.56261   0.48626   1.000
    C24     C    0.95713   0.80812   0.27472   1.000
    C25     C    0.18775   0.22387   0.27913   1.000
    C26     C    0.26978   0.06222   0.01372   1.000
    C27     C    0.53905   0.30750   0.22553   1.000
    O28     O    0.59210   0.30383   0.83119   1.000
    O29     O    0.67404   0.17573   0.73755   1.000
    O30     O    0.77826   0.34165   0.47175   1.000
    O31     O    0.74125   0.54922   0.49075   1.000
    O32     O    0.06516   0.16632   0.79283   1.000
    O33     O    0.08809   0.11385   0.67181   1.000
    O34     O    0.91162   0.80451   0.66888   1.000
    O35     O    0.82974   0.67562   0.76232   1.000
    O36     O    0.71846   0.84285   0.02863   1.000
    O37     O    0.76131   0.05137   0.00912   1.000
    O38     O    0.43828   0.66679   0.70698   1.000
    O39     O    0.41521   0.61358   0.82797   1.000
    O40     O    0.40753   0.69796   0.16890   1.000
    O41     O    0.32537   0.82557   0.26264   1.000
    O42     O    0.22161   0.65617   0.52843   1.000
    O43     O    0.25853   0.44868   0.50917   1.000
    O44     O    0.93467   0.83244   0.20740   1.000
    O45     O    0.91142   0.88542   0.32834   1.000
    O46     O    0.08859   0.19685   0.33124   1.000
    O47     O    0.17090   0.32482   0.23752   1.000
    O48     O    0.28176   0.15538   0.97135   1.000
    O49     O    0.24472   0.94956   0.99066   1.000
    O50     O    0.56162   0.33157   0.29285   1.000
    O51     O    0.58497   0.38483   0.17185   1.000
loop_
    _geom_bond_atom_site_label_1
    _geom_bond_atom_site_label_2
    _geom_bond_distance
    _geom_bond_site_symmetry_2
    _ccdc_geom_bond_type
    O37    H14       1.08173      .   S
    O37    C20       1.32050  1_544   S
    C26    O48       1.25523  1_554   S
    C26    O49       1.28818  1_544   S
    O36    Ca1       2.27739      .   S
    O36    C20       1.25551  1_554   S
    O40    C22       1.24615      .   S
    O51    H15       1.02693      .   S
    O51    C27       1.31739      .   S
    O44    C24       1.24920      .   S
    C22    O41       1.31809      .   S
    C27    O50       1.24912      .   S
    O47    H13       1.04904      .   S
    O47    C25       1.31802      .   S
    H9     O41       1.04875      .   S
    C24    O45       1.31720      .   S
    C25    O46       1.24615      .   S
    H12    O45       1.02712      .   S
    Ca2    O30       2.27792      .   S
    H11    O31       1.08307      .   S
    O30    C17       1.25603      .   S
    C23    O43       1.30408      .   S
    C23    O42       1.25591      .   S
    O31    C17       1.30407      .   S
    O43    H4        1.08365      .   S
    O42    Ca0       2.27777      .   S
    O34    C19       1.24606      .   S
    O33    H5        1.02830      .   S
    O33    C18       1.31711      .   S
    O38    C21       1.24927      .   S
    C19    O35       1.31817      .   S
    C18    O32       1.24944      .   S
    O29    H3        1.04839      .   S
    O29    C16       1.31792      .   S
    H6     O35       1.04755      .   S
    C21    O39       1.31765      .   S
    C16    O28       1.24616      .   S
    H8     O39       1.02738      .   S
    Ca10   O48       2.27756      .   S
    H7     O49       1.08310      .   S
    O28    Ca10      2.35849      .   S
    O32    Ca10      2.33470      .   S
    O34    Ca0       2.35841  1_655   S
    O38    Ca0       2.33177      .   S
    O40    Ca1       2.35234      .   S
    O44    Ca1       2.32988      .   S
    O46    Ca2       2.35288  1_455   S
    O50    Ca2       2.32987      .   S
