# CIF file generated by openbabel 2.4.90, see http://openbabel.sf.net
data_I
_chemical_name_common ''
_cell_length_a 14.039
_cell_length_b 14.068
_cell_length_c 14.791
_cell_angle_alpha 90.014
_cell_angle_beta 89.981
_cell_angle_gamma 89.986
_space_group_name_H-M_alt 'P 1'
_space_group_name_Hall 'P 1'
loop_
    _symmetry_equiv_pos_as_xyz
    x,y,z
loop_
    _atom_site_label
    _atom_site_type_symbol
    _atom_site_fract_x
    _atom_site_fract_y
    _atom_site_fract_z
    _atom_site_occupancy
    C0      C    0.88020   0.54234   0.34331   1.000
    C1      C    0.61980   0.95760   0.34326   1.000
    C2      C    0.95807   0.88006   0.84318   1.000
    C3      C    0.54194   0.61991   0.84329   1.000
    C4      C    0.38025   0.45766   0.15675   1.000
    C5      C    0.04208   0.38008   0.65678   1.000
    C6      C    0.45794   0.11989   0.65671   1.000
    C7      C    0.11979   0.45762   0.65673   1.000
    C8      C    0.38019   0.04238   0.65675   1.000
    C9      C    0.45801   0.38013   0.15673   1.000
    C10     C    0.88029   0.95759   0.84322   1.000
    C11     C    0.61971   0.54239   0.84330   1.000
    C12     C    0.95789   0.61989   0.34328   1.000
    C13     C    0.54204   0.88011   0.34330   1.000
loop_
    _geom_bond_atom_site_label_1
    _geom_bond_atom_site_label_2
    _geom_bond_distance
    _geom_bond_site_symmetry_2
    _ccdc_geom_bond_type
    C9     C4        1.54294      .   S
    C1     C13       1.54303      .   S
    C12    C0        1.54290      .   S
    C6     C8        1.54302      .   S
    C7     C5        1.54292      .   S
    C2     C10       1.54317      .   S
    C3     C11       1.54294      .   S
