# CIF file generated by openbabel 2.4.90, see http://openbabel.sf.net
data_I
_chemical_name_common ''
_cell_length_a 15.841
_cell_length_b 16.164
_cell_length_c 22.838
_cell_angle_alpha 90.009
_cell_angle_beta 89.993
_cell_angle_gamma 89.94
_space_group_name_H-M_alt 'P 1'
_space_group_name_Hall 'P 1'
loop_
    _symmetry_equiv_pos_as_xyz
    x,y,z
loop_
    _atom_site_label
    _atom_site_type_symbol
    _atom_site_fract_x
    _atom_site_fract_y
    _atom_site_fract_z
    _atom_site_occupancy
    C0      C    0.83627   0.57991   0.16946   1.000
    C1      C    0.16443   0.57697   0.81743   1.000
    C2      C    0.69204   0.41906   0.34137   1.000
    C3      C    0.35505   0.41065   0.67306   1.000
    C4      C    0.33783   0.42140   0.83120   1.000
    C5      C    0.66441   0.42291   0.18296   1.000
    C6      C    0.19191   0.58073   0.65871   1.000
    C7      C    0.85461   0.58898   0.32761   1.000
    C8      C    0.83787   0.42142   0.66871   1.000
    C9      C    0.16453   0.42276   0.31700   1.000
    C10     C    0.69192   0.58070   0.84127   1.000
    C11     C    0.35496   0.58934   0.17288   1.000
    C12     C    0.33761   0.57869   0.33095   1.000
    C13     C    0.66455   0.57710   0.68261   1.000
    C14     C    0.19203   0.41925   0.15856   1.000
    C15     C    0.85501   0.41057   0.82690   1.000
