# CIF file generated by openbabel 2.4.90, see http://openbabel.sf.net
data_I
_chemical_name_common ''
_cell_length_a 12.575
_cell_length_b 12.867
_cell_length_c 14.514
_cell_angle_alpha 88.632
_cell_angle_beta 88.664
_cell_angle_gamma 86.105
_space_group_name_H-M_alt 'P 1'
_space_group_name_Hall 'P 1'
loop_
    _symmetry_equiv_pos_as_xyz
    x,y,z
loop_
    _atom_site_label
    _atom_site_type_symbol
    _atom_site_fract_x
    _atom_site_fract_y
    _atom_site_fract_z
    _atom_site_occupancy
    H0      H    0.17629   0.45389   0.50999   1.000
    H1      H    0.23190   0.55020   0.11611   1.000
    H2      H    0.28707   0.51282   0.95462   1.000
    H3      H    0.97264   0.63197   0.87289   1.000
    H4      H    0.93105   0.66858   0.03874   1.000
    H5      H    0.59353   0.55912   0.64174   1.000
    H6      H    0.74092   0.42146   0.64075   1.000
    H7      H    0.54451   0.82800   0.98969   1.000
    H8      H    0.46101   0.77028   0.38170   1.000
    H9      H    0.49505   0.71626   0.54402   1.000
    H10     H    0.36109   0.01993   0.62445   1.000
    H11     H    0.32902   0.06098   0.45791   1.000
    H12     H    0.43528   0.41108   0.85742   1.000
    H13     H    0.57054   0.26214   0.85919   1.000
    H14     H    0.82789   0.54156   0.49003   1.000
    H15     H    0.76754   0.45074   0.88248   1.000
    H16     H    0.71262   0.48751   0.04413   1.000
    H17     H    0.02750   0.36888   0.12505   1.000
    H18     H    0.06867   0.33255   0.95914   1.000
    H19     H    0.40567   0.44047   0.35745   1.000
    H20     H    0.25777   0.57775   0.35756   1.000
    H21     H    0.45043   0.17540   0.01119   1.000
    H22     H    0.53848   0.22949   0.61824   1.000
    H23     H    0.50408   0.28376   0.45606   1.000
    H24     H    0.63905   0.98067   0.37498   1.000
    H25     H    0.67135   0.93932   0.54144   1.000
    H26     H    0.56647   0.59038   0.14440   1.000
    H27     H    0.43053   0.73883   0.14181   1.000
    H28     H    0.00222   0.00000   0.74889   1.000
    H29     H    0.00000   0.01046   0.25347   1.000
    C30     C    0.15241   0.53489   0.80412   1.000
    C31     C    0.12203   0.47798   0.66787   1.000
    C32     C    0.21921   0.52331   0.66456   1.000
    C33     C    0.06305   0.42437   0.59921   1.000
    C34     C    0.29565   0.53943   0.58715   1.000
    C35     C    0.17622   0.56663   0.06037   1.000
    C36     C    0.20653   0.54488   0.96983   1.000
    C37     C    0.13182   0.56437   0.90023   1.000
    C38     C    0.03154   0.61154   0.92521   1.000
    C39     C    0.00802   0.63204   0.01707   1.000
    C40     C    0.91019   0.16605   0.75473   1.000
    C41     C    0.02697   0.15408   0.76612   1.000
    C42     C    0.59284   0.49391   0.69086   1.000
    C43     C    0.67511   0.41634   0.69031   1.000
    C44     C    0.46485   0.84717   0.69465   1.000
    C45     C    0.52051   0.87953   0.83125   1.000
    C46     C    0.47772   0.78280   0.83446   1.000
    C47     C    0.57292   0.93901   0.90011   1.000
    C48     C    0.46379   0.70783   0.91208   1.000
    C49     C    0.44075   0.82397   0.43736   1.000
    C50     C    0.46058   0.79429   0.52836   1.000
    C51     C    0.43624   0.86639   0.59795   1.000
    C52     C    0.38583   0.96328   0.57232   1.000
    C53     C    0.36766   0.98643   0.47999   1.000
    C54     C    0.83498   0.09246   0.74636   1.000
    C55     C    0.84647   0.00000   0.73415   1.000
    C56     C    0.50233   0.40923   0.80856   1.000
    C57     C    0.57855   0.32593   0.80946   1.000
    C58     C    0.84787   0.46528   0.19457   1.000
    C59     C    0.87956   0.52083   0.33111   1.000
    C60     C    0.78248   0.47526   0.33471   1.000
    C61     C    0.93928   0.57361   0.39989   1.000
    C62     C    0.70671   0.45849   0.41252   1.000
    C63     C    0.82343   0.43429   0.93807   1.000
    C64     C    0.79323   0.45570   0.02874   1.000
    C65     C    0.86812   0.43631   0.09821   1.000
    C66     C    0.96838   0.38930   0.07290   1.000
    C67     C    0.99173   0.36905   0.98095   1.000
    C68     C    0.08967   0.83389   0.24503   1.000
    C69     C    0.00000   0.84588   0.23397   1.000
    C70     C    0.40682   0.50598   0.30867   1.000
    C71     C    0.32435   0.58337   0.30885   1.000
    C72     C    0.53460   0.15341   0.30518   1.000
    C73     C    0.47759   0.12197   0.16883   1.000
    C74     C    0.52047   0.21865   0.16572   1.000
    C75     C    0.42481   0.06279   0.10001   1.000
    C76     C    0.53386   0.29412   0.08836   1.000
    C77     C    0.55894   0.17599   0.56248   1.000
    C78     C    0.53894   0.20583   0.47154   1.000
    C79     C    0.56350   0.13397   0.40179   1.000
    C80     C    0.61420   0.03715   0.42723   1.000
    C81     C    0.63251   0.01384   0.51953   1.000
    C82     C    0.16481   0.90748   0.25391   1.000
    C83     C    0.15326   0.01996   0.26720   1.000
    C84     C    0.49864   0.59170   0.19244   1.000
    C85     C    0.42222   0.67481   0.19122   1.000
    C86     C    0.75232   0.24585   0.75038   1.000
    C87     C    0.66778   0.32970   0.75001   1.000
    C88     C    0.24758   0.75417   0.24893   1.000
    C89     C    0.33215   0.67036   0.24960   1.000
    N90     N    0.08010   0.48570   0.75578   1.000
    N91     N    0.23860   0.55807   0.75094   1.000
    N92     N    0.07803   0.60732   0.08464   1.000
    N93     N    0.85734   0.26242   0.75587   1.000
    N94     N    0.51208   0.91987   0.74318   1.000
    N95     N    0.44374   0.76213   0.74794   1.000
    N96     N    0.39744   0.91919   0.41254   1.000
    N97     N    0.73558   0.14352   0.74496   1.000
    N98     N    0.92055   0.51416   0.24282   1.000
    N99     N    0.76218   0.44151   0.24816   1.000
    N100    N    0.92157   0.39373   0.91348   1.000
    N101    N    0.14259   0.73759   0.24316   1.000
    N102    N    0.48701   0.08098   0.25662   1.000
    N103    N    0.55528   0.23872   0.25210   1.000
    N104    N    0.60259   0.08084   0.58713   1.000
    N105    N    0.26426   0.85647   0.25494   1.000
    N106    N    0.50817   0.49179   0.74978   1.000
    N107    N    0.49227   0.50875   0.25068   1.000
    O108    O    0.97784   0.38585   0.62408   1.000
    O109    O    0.10204   0.41763   0.51517   1.000
    O110    O    0.37589   0.59044   0.60478   1.000
    O111    O    0.27671   0.50174   0.50933   1.000
    O112    O    0.07411   0.23699   0.78129   1.000
    O113    O    0.07331   0.06322   0.76159   1.000
    O114    O    0.61091   0.02307   0.87495   1.000
    O115    O    0.57929   0.90218   0.98442   1.000
    O116    O    0.41627   0.62649   0.89452   1.000
    O117    O    0.50014   0.72887   0.99022   1.000
    O118    O    0.76416   0.93194   0.71874   1.000
    O119    O    0.94093   0.93262   0.73802   1.000
    O120    O    0.02358   0.61341   0.37464   1.000
    O121    O    0.90189   0.57815   0.48458   1.000
    O122    O    0.62534   0.40904   0.39489   1.000
    O123    O    0.72729   0.49408   0.49078   1.000
    O124    O    0.92575   0.76308   0.21821   1.000
    O125    O    0.92645   0.93660   0.23938   1.000
    O126    O    0.38846   0.97783   0.12477   1.000
    O127    O    0.41622   0.10100   0.01623   1.000
    O128    O    0.58349   0.37425   0.10560   1.000
    O129    O    0.49528   0.27459   0.01073   1.000
    O130    O    0.23571   0.06788   0.28194   1.000
    O131    O    0.05860   0.06702   0.26511   1.000
loop_
    _geom_bond_atom_site_label_1
    _geom_bond_atom_site_label_2
    _geom_bond_distance
    _geom_bond_site_symmetry_2
    _ccdc_geom_bond_type
    O129   C76       1.27425      .   S
    H21    O127      1.07613      .   S
    O127   C75       1.30481      .   S
    C39    H4        1.08995  1_455   S
    C39    N92       1.35107      .   S
    C39    C38       1.38644  1_554   S
    C64    H16       1.08737      .   S
    C64    C65       1.40224      .   S
    C64    C63       1.38970  1_554   S
    C35    N92       1.35040      .   S
    C35    H1        1.08983      .   S
    C35    C36       1.38919  1_554   S
    C66    C65       1.40572      .   S
    C66    H17       1.08843  1_655   S
    C66    C67       1.38677  1_554   S
    C76    O128      1.27359      .   S
    C76    C74       1.48108      .   S
    C65    C58       1.46803      .   S
    C75    O126      1.25477  1_545   S
    C75    C73       1.46757      .   S
    H27    C85       1.08809      .   S
    H26    C84       1.08849      .   S
    C74    C73       1.38836      .   S
    C74    N103      1.37344      .   S
    C73    N102      1.37197      .   S
    C85    C84       1.38831      .   S
    C85    C89       1.40213      .   S
    C84    N107      1.35125      .   S
    C58    N98       1.36027      .   S
    C58    N99       1.36153      .   S
    O124   C69       1.48855  1_655   S
    C69    O125      1.44163  1_455   S
    C69    C68       1.14228      .   S
    N98    C59       1.37252      .   S
    N101   C68       1.36655      .   S
    N101   C88       1.35643      .   S
    C68    C82       1.39246      .   S
    N99    C60       1.37392      .   S
    C88    C89       1.46223      .   S
    C88    N105      1.35209      .   S
    C89    C71       1.40251      .   S
    N107   C70       1.35127      .   S
    N103   C72       1.36198      .   S
    H29    O131      1.08884      .   S
    C82    N105      1.37251      .   S
    C82    C83       1.46162  1_565   S
    N102   C72       1.36021      .   S
    O131   C83       1.29909      .   S
    C83    O130      1.26659      .   S
    C72    C79       1.46817      .   S
    C70    C71       1.38807      .   S
    C70    H19       1.08835      .   S
    C71    H20       1.08825      .   S
    C59    C60       1.38908      .   S
    C59    C61       1.46919      .   S
    C60    C62       1.48185      .   S
    O120   C61       1.25186  1_455   S
    H24    C80       1.08872  1_565   S
    H8     C49       1.08986      .   S
    O122   C62       1.27491      .   S
    C61    O121      1.30698      .   S
    C79    C80       1.40566      .   S
    C79    C78       1.40237      .   S
    C62    O123      1.27343      .   S
    N96    C49       1.35093      .   S
    N96    C53       1.35148      .   S
    C80    C81       1.38683      .   S
    C49    C50       1.38955      .   S
    H23    C78       1.08731      .   S
    H11    C53       1.09003  1_545   S
    C78    C77       1.38961      .   S
    C53    C52       1.38664      .   S
    O121   H14       1.07140      .   S
    O111   C34       1.27365      .   S
    H0     O109      1.07212      .   S
    O109   C33       1.30658      .   S
    C81    H25       1.09003  1_545   S
    C81    N104      1.35151      .   S
    C50    H9        1.08728      .   S
    C50    C51       1.40229      .   S
    C77    N104      1.35100      .   S
    C77    H22       1.08986      .   S
    C52    C51       1.40571      .   S
    C52    H10       1.08868  1_565   S
    C34    O110      1.27462      .   S
    C34    C32       1.48153      .   S
    C51    C44       1.46800      .   S
    C33    O108      1.25282  1_455   S
    C33    C31       1.46828      .   S
    H6     C43       1.08810      .   S
    H5     C42       1.08835      .   S
    C32    C31       1.38881      .   S
    C32    N91       1.37370      .   S
    C31    N90       1.37228      .   S
    C43    C42       1.38788      .   S
    C43    C87       1.40225      .   S
    C42    N106      1.35128      .   S
    C44    N94       1.36037      .   S
    C44    N95       1.36211      .   S
    O118   C55       1.42532  1_565   S
    C55    O119      1.42369  1_545   S
    C55    C54       1.20551      .   S
    O119   H28       1.21391  1_665   S
    N94    C45       1.37181      .   S
    N97    C54       1.37237      .   S
    N97    C86       1.35181      .   S
    C54    C40       1.39228      .   S
    N95    C46       1.37353      .   S
    N106   C56       1.35138      .   S
    C87    C86       1.46232      .   S
    C87    C57       1.40225      .   S
    C86    N93       1.35640      .   S
    N91    C30       1.36130      .   S
    C40    N93       1.36671      .   S
    C40    C41       1.47875  1_655   S
    N90    C30       1.35966      .   S
    O113   C41       1.27277      .   S
    C41    O112      1.28114      .   S
    C30    C37       1.46702      .   S
    C56    C57       1.38850      .   S
    C56    H12       1.08841      .   S
    C57    H13       1.08829      .   S
    C45    C46       1.38846      .   S
    C45    C47       1.46794      .   S
    C46    C48       1.48062      .   S
    H3     C38       1.08840  1_655   S
    O114   C47       1.25475  1_545   S
    H15    C63       1.08982      .   S
    O116   C48       1.27368      .   S
    C47    O115      1.30396      .   S
    C37    C38       1.40548      .   S
    C37    C36       1.40207      .   S
    C48    O117      1.27437      .   S
    N100   C63       1.35051      .   S
    N100   C67       1.35112      .   S
    H2     C36       1.08724      .   S
    H18    C67       1.08999  1_455   S
    O115   H7        1.07698      .   S
