# CIF file generated by openbabel 2.4.90, see http://openbabel.sf.net
data_I
_chemical_name_common ''
_cell_length_a 14.712
_cell_length_b 18.13
_cell_length_c 25.12
_cell_angle_alpha 89.962
_cell_angle_beta 90.097
_cell_angle_gamma 90.047
_space_group_name_H-M_alt 'P 1'
_space_group_name_Hall 'P 1'
loop_
    _symmetry_equiv_pos_as_xyz
    x,y,z
loop_
    _atom_site_label
    _atom_site_type_symbol
    _atom_site_fract_x
    _atom_site_fract_y
    _atom_site_fract_z
    _atom_site_occupancy
    Lv0     Lv   0.75388   0.36121   0.10124   1.000
    Lv1     Lv   0.99954   0.74330   0.34997   1.000
    Lv2     Lv   0.25372   0.63274   0.39939   1.000
    Lv3     Lv   0.24630   0.13283   0.10056   1.000
    Lv4     Lv   0.00058   0.25701   0.84319   1.000
    Lv5     Lv   0.75370   0.86714   0.89943   1.000
    Lv6     Lv   0.24612   0.63876   0.89876   1.000
    Lv7     Lv   0.50041   0.24295   0.34323   1.000
    Lv8     Lv   0.25394   0.13882   0.60120   1.000
    Lv9     Lv   0.99942   0.74295   0.15680   1.000
    Lv10    Lv   0.74627   0.36723   0.60054   1.000
    Lv11    Lv   0.74605   0.86115   0.39874   1.000
    Lv12    Lv   0.00040   0.25667   0.65002   1.000
    Lv13    Lv   0.50044   0.24327   0.14999   1.000
    Lv14    Lv   0.49959   0.75701   0.65676   1.000
    Lv15    Lv   0.49957   0.75670   0.85000   1.000
