# CIF file generated by openbabel 2.4.90, see http://openbabel.sf.net
data_I
_chemical_name_common ''
_cell_length_a 15.614
_cell_length_b 17.228
_cell_length_c 18.405
_cell_angle_alpha 89.946
_cell_angle_beta 90.001
_cell_angle_gamma 90.006
_space_group_name_H-M_alt 'P 1'
_space_group_name_Hall 'P 1'
loop_
    _symmetry_equiv_pos_as_xyz
    x,y,z
loop_
    _atom_site_label
    _atom_site_type_symbol
    _atom_site_fract_x
    _atom_site_fract_y
    _atom_site_fract_z
    _atom_site_occupancy
    Lv0     Lv   0.61905   0.85585   0.36813   1.000
    Lv1     Lv   0.88070   0.35584   0.36810   1.000
    Lv2     Lv   0.38093   0.35591   0.13159   1.000
    Lv3     Lv   0.61905   0.64408   0.86837   1.000
    Lv4     Lv   0.88071   0.14408   0.86832   1.000
    Lv5     Lv   0.11904   0.64414   0.63185   1.000
    Lv6     Lv   0.38093   0.14414   0.63183   1.000
    Lv7     Lv   0.11903   0.85591   0.13165   1.000
