# CIF file generated by openbabel 2.4.90, see http://openbabel.sf.net
data_I
_chemical_name_common ''
_cell_length_a 18.626
_cell_length_b 14.536
_cell_length_c 27.649
_cell_angle_alpha 89.935
_cell_angle_beta 89.867
_cell_angle_gamma 92.543
_space_group_name_H-M_alt 'P 1'
_space_group_name_Hall 'P 1'
loop_
    _symmetry_equiv_pos_as_xyz
    x,y,z
loop_
    _atom_site_label
    _atom_site_type_symbol
    _atom_site_fract_x
    _atom_site_fract_y
    _atom_site_fract_z
    _atom_site_occupancy
    Zr0     Zr   0.34941   0.12076   0.33368   1.000
    Zr1     Zr   0.84940   0.12076   0.33368   1.000
    Zr2     Zr   0.49675   0.10572   0.37892   1.000
    Zr3     Zr   0.99674   0.10572   0.37892   1.000
    Zr4     Zr   0.15067   0.37931   0.83348   1.000
    Zr5     Zr   0.65067   0.37931   0.83348   1.000
    Zr6     Zr   0.00333   0.39409   0.87905   1.000
    Zr7     Zr   0.50332   0.39409   0.87905   1.000
    Zr8     Zr   0.15058   0.87922   0.66630   1.000
    Zr9     Zr   0.65057   0.87922   0.66630   1.000
    Zr10    Zr   0.00324   0.89426   0.62107   1.000
    Zr11    Zr   0.50323   0.89426   0.62107   1.000
    Zr12    Zr   0.34931   0.62068   0.16651   1.000
    Zr13    Zr   0.84931   0.62068   0.16651   1.000
    Zr14    Zr   0.49666   0.60589   0.12093   1.000
    Zr15    Zr   0.99665   0.60589   0.12093   1.000
    N16     N    0.40103   0.12416   0.08603   1.000
    O17     O    0.18642   0.89534   0.10572   1.000
    O18     O    0.62996   0.90378   0.13209   1.000
    O19     O    0.20207   0.10594   0.21534   1.000
    O20     O    0.18636   0.26345   0.99560   1.000
    O21     O    0.17710   0.34630   0.09667   1.000
    O22     O    0.61185   0.35513   0.11430   1.000
    O23     O    0.63632   0.10192   0.19826   1.000
    N24     N    0.90094   0.62440   0.41393   1.000
    O25     O    0.11201   0.85580   0.38609   1.000
    O26     O    0.67726   0.84620   0.40335   1.000
    O27     O    0.13005   0.40395   0.36795   1.000
    O28     O    0.68579   0.76359   0.50477   1.000
    O29     O    0.68644   0.39538   0.39424   1.000
    O30     O    0.13631   0.60202   0.30180   1.000
    O31     O    0.70205   0.60615   0.28453   1.000
    N32     N    0.90104   0.12416   0.08604   1.000
    O33     O    0.67710   0.34630   0.09668   1.000
    O34     O    0.12997   0.90378   0.13210   1.000
    O35     O    0.70207   0.10594   0.21535   1.000
    O36     O    0.11186   0.35514   0.11430   1.000
    O37     O    0.68642   0.89534   0.10572   1.000
    O38     O    0.13633   0.10192   0.19826   1.000
    O39     O    0.68636   0.26345   0.99561   1.000
    N40     N    0.59895   0.87582   0.91394   1.000
    O41     O    0.81362   0.73654   0.00438   1.000
    O42     O    0.38813   0.64485   0.88568   1.000
    O43     O    0.79791   0.89404   0.78464   1.000
    O44     O    0.82288   0.65368   0.90329   1.000
    O45     O    0.81356   0.10464   0.89426   1.000
    O46     O    0.36366   0.89806   0.80172   1.000
    O47     O    0.37002   0.09621   0.86787   1.000
    N48     N    0.09882   0.37557   0.58603   1.000
    O49     O    0.32261   0.15378   0.59661   1.000
    O50     O    0.31408   0.23638   0.49521   1.000
    O51     O    0.86356   0.39796   0.69817   1.000
    O52     O    0.29782   0.39382   0.71544   1.000
    O53     O    0.86982   0.59603   0.63202   1.000
    O54     O    0.31342   0.60459   0.60553   1.000
    O55     O    0.88785   0.14418   0.61388   1.000
    N56     N    0.59905   0.37557   0.58605   1.000
    O57     O    0.82273   0.15378   0.59662   1.000
    O58     O    0.36367   0.39796   0.69818   1.000
    O59     O    0.81419   0.23638   0.49521   1.000
    O60     O    0.79793   0.39382   0.71545   1.000
    O61     O    0.38797   0.14418   0.61389   1.000
    O62     O    0.81354   0.60459   0.60574   1.000
    O63     O    0.36994   0.59603   0.63202   1.000
    N64     N    0.40093   0.62440   0.41392   1.000
    O65     O    0.63004   0.40395   0.36795   1.000
    O66     O    0.18579   0.76359   0.50476   1.000
    O67     O    0.20205   0.60615   0.28453   1.000
    O68     O    0.18644   0.39538   0.39424   1.000
    O69     O    0.63631   0.60202   0.30180   1.000
    O70     O    0.17725   0.84620   0.40335   1.000
    O71     O    0.61201   0.85580   0.38609   1.000
    N72     N    0.09872   0.87582   0.91394   1.000
    O73     O    0.86354   0.89806   0.80172   1.000
    O74     O    0.31350   0.73654   0.00437   1.000
    O75     O    0.31344   0.10464   0.89426   1.000
    O76     O    0.32276   0.65368   0.90329   1.000
    O77     O    0.86990   0.09621   0.86787   1.000
    O78     O    0.29779   0.89404   0.78464   1.000
    O79     O    0.88801   0.64485   0.88568   1.000
loop_
    _geom_bond_atom_site_label_1
    _geom_bond_atom_site_label_2
    _geom_bond_distance
    _geom_bond_site_symmetry_2
    _ccdc_geom_bond_type
    N16    O17       5.11316  1_545   S
    Zr15   O17       5.38911  1_655   S
    N16    O18       5.59413  1_545   S
    Zr13   O18       6.00267      .   S
    N16    O19       5.14149      .   S
    Zr3    O19       5.91612  1_655   S
    N16    O20       5.20507  1_554   S
    Zr6    O20       5.12103      .   S
    N16    O21       5.39474      .   S
    Zr15   O21       5.20625  1_655   S
    N16    O22       5.11400      .   S
    Zr13   O22       5.92209      .   S
    N16    O23       5.39683      .   S
    Zr1    O23       5.46083      .   S
    N24    O25       5.11562  1_655   S
    Zr0    O25       5.91033  1_545   S
    N24    O26       5.38825      .   S
    Zr2    O26       5.20781  1_545   S
    N24    O27       5.59404  1_655   S
    Zr0    O27       6.00172      .   S
    N24    O28       5.20999      .   S
    Zr11   O28       5.10370      .   S
    N24    O29       5.11598      .   S
    Zr2    O29       5.39284      .   S
    N24    O30       5.38550  1_655   S
    Zr12   O30       5.44415      .   S
    N24    O31       5.15458      .   S
    Zr14   O31       5.93088      .   S
    N32    O33       5.39468      .   S
    Zr14   O33       5.20618      .   S
    N32    O34       5.59416  1_645   S
    Zr12   O34       6.00270      .   S
    N32    O35       5.14144      .   S
    Zr2    O35       5.91596      .   S
    N32    O36       5.11402  1_655   S
    Zr12   O36       5.92211      .   S
    N32    O37       5.11311  1_545   S
    Zr14   O37       5.38908      .   S
    N32    O38       5.39682  1_655   S
    Zr0    O38       5.46080      .   S
    N32    O39       5.20512  1_554   S
    Zr7    O39       5.12119      .   S
    N40    O41       5.20499  1_556   S
    Zr15   O41       5.12112      .   S
    N40    O42       5.11398      .   S
    Zr4    O42       5.92203      .   S
    N40    O43       5.14140      .   S
    Zr10   O43       5.91591  1_455   S
    N40    O44       5.39472      .   S
    Zr6    O44       5.20616  1_455   S
    N40    O45       5.11314  1_565   S
    Zr6    O45       5.38911  1_455   S
    N40    O46       5.39676      .   S
    Zr8    O46       5.46083      .   S
    N40    O47       5.59421  1_565   S
    Zr4    O47       6.00258      .   S
    N48    O49       5.38989      .   S
    Zr11   O49       5.20930  1_565   S
    N48    O50       5.21147      .   S
    Zr2    O50       5.10477      .   S
    N48    O51       5.38400  1_455   S
    Zr5    O51       5.44298      .   S
    N48    O52       5.15629      .   S
    Zr7    O52       5.93244      .   S
    N48    O53       5.59248  1_455   S
    Zr9    O53       6.00034      .   S
    N48    O54       5.11705      .   S
    Zr11   O54       5.39468      .   S
    N48    O55       5.11409  1_455   S
    Zr9    O55       5.90884  1_565   S
    N56    O57       5.38824      .   S
    Zr10   O57       5.20786  1_465   S
    N56    O58       5.38557      .   S
    Zr4    O58       5.44434      .   S
    N56    O59       5.20990      .   S
    Zr3    O59       5.10332      .   S
    N56    O60       5.15463      .   S
    Zr6    O60       5.93101  1_455   S
    N56    O61       5.11558      .   S
    Zr8    O61       5.91028  1_565   S
    N56    O62       5.11609      .   S
    Zr10   O62       5.39295  1_455   S
    N56    O63       5.59406      .   S
    Zr8    O63       6.00177      .   S
    N64    O65       5.59399      .   S
    Zr1    O65       6.00169      .   S
    N64    O66       5.21000      .   S
    Zr10   O66       5.10359      .   S
    N64    O67       5.15455      .   S
    Zr15   O67       5.93095  1_655   S
    N64    O68       5.11603      .   S
    Zr3    O68       5.39289  1_655   S
    N64    O69       5.38544      .   S
    Zr13   O69       5.44409      .   S
    N64    O70       5.38830      .   S
    Zr3    O70       5.20783  1_645   S
    N64    O71       5.11558      .   S
    Zr1    O71       5.91029  1_545   S
    N72    O73       5.39504  1_455   S
    Zr9    O73       5.45930      .   S
    N72    O74       5.20670  1_556   S
    Zr14   O74       5.12271      .   S
    N72    O75       5.11472  1_565   S
    Zr7    O75       5.39041      .   S
    N72    O76       5.39639      .   S
    Zr7    O76       5.20756      .   S
    N72    O77       5.59256  1_465   S
    Zr5    O77       6.00110      .   S
    N72    O78       5.14292      .   S
    Zr11   O78       5.91718      .   S
    N72    O79       5.11243  1_455   S
    Zr5    O79       5.92051      .   S
