# CIF file generated by openbabel 2.4.90, see http://openbabel.sf.net
data_I
_chemical_name_common ''
_cell_length_a 15.254
_cell_length_b 13.761
_cell_length_c 22.276
_cell_angle_alpha 89.97
_cell_angle_beta 90.024
_cell_angle_gamma 90.154
_space_group_name_H-M_alt 'P 1'
_space_group_name_Hall 'P 1'
loop_
    _symmetry_equiv_pos_as_xyz
    x,y,z
loop_
    _atom_site_label
    _atom_site_type_symbol
    _atom_site_fract_x
    _atom_site_fract_y
    _atom_site_fract_z
    _atom_site_occupancy
    N0      N    0.99339   0.68183   0.56234   1.000
    N1      N    0.49339   0.68183   0.56233   1.000
    N2      N    0.50721   0.81838   0.06220   1.000
    N3      N    0.00585   0.81838   0.06221   1.000
    N4      N    0.00538   0.31816   0.43766   1.000
    N5      N    0.50662   0.31816   0.43766   1.000
    N6      N    0.99278   0.18161   0.93779   1.000
    N7      N    0.49278   0.18161   0.93779   1.000
    N8      N    0.32770   0.68987   0.80823   1.000
    N9      N    0.82770   0.68987   0.80820   1.000
    N10     N    0.33103   0.97517   0.77015   1.000
    N11     N    0.83106   0.97515   0.77005   1.000
    N12     N    0.10497   0.97663   0.77541   1.000
    N13     N    0.60498   0.97656   0.77530   1.000
    N14     N    0.10417   0.18638   0.69005   1.000
    N15     N    0.60418   0.18640   0.69007   1.000
    N16     N    0.17210   0.81060   0.30980   1.000
    N17     N    0.67211   0.81058   0.30979   1.000
    N18     N    0.16862   0.52466   0.27105   1.000
    N19     N    0.66862   0.52467   0.27109   1.000
    N20     N    0.39475   0.52310   0.27645   1.000
    N21     N    0.89476   0.52309   0.27641   1.000
    N22     N    0.39566   0.31329   0.19199   1.000
    N23     N    0.89566   0.31328   0.19203   1.000
    N24     N    0.17230   0.31011   0.19177   1.000
    N25     N    0.67230   0.31011   0.19178   1.000
    N26     N    0.16896   0.02438   0.22979   1.000
    N27     N    0.66896   0.02437   0.22981   1.000
    N28     N    0.39504   0.02230   0.22464   1.000
    N29     N    0.89502   0.02234   0.22465   1.000
    N30     N    0.39581   0.81363   0.30995   1.000
    N31     N    0.89584   0.81362   0.30995   1.000
    N32     N    0.32790   0.18934   0.69016   1.000
    N33     N    0.82789   0.18939   0.69022   1.000
    N34     N    0.33135   0.47534   0.72888   1.000
    N35     N    0.83137   0.47532   0.72890   1.000
    N36     N    0.10524   0.47690   0.72356   1.000
    N37     N    0.60525   0.47688   0.72356   1.000
    N38     N    0.10431   0.68666   0.80801   1.000
    N39     N    0.60434   0.68668   0.80799   1.000
    Zr40    Zr   0.96592   0.83145   0.80083   1.000
    O41     O    0.01443   0.78039   0.80475   1.000
    O42     O    0.91881   0.88223   0.79047   1.000
    O43     O    0.01467   0.88297   0.79269   1.000
    O44     O    0.91743   0.78172   0.80476   1.000
    O45     O    0.97570   0.83413   0.87893   1.000
    O46     O    0.97623   0.78850   0.72856   1.000
    Zr47    Zr   0.03396   0.66917   0.30136   1.000
    O48     O    0.02344   0.71215   0.22894   1.000
    O49     O    0.98515   0.61750   0.29335   1.000
    O50     O    0.98556   0.72009   0.30578   1.000
    O51     O    0.08099   0.61817   0.29112   1.000
    O52     O    0.08241   0.71884   0.30566   1.000
    O53     O    0.02411   0.66629   0.37934   1.000
    Zr54    Zr   0.53395   0.66917   0.30136   1.000
    O55     O    0.52378   0.71215   0.22894   1.000
    O56     O    0.48555   0.72010   0.30577   1.000
    O57     O    0.48514   0.61750   0.29336   1.000
    O58     O    0.58098   0.61818   0.29114   1.000
    O59     O    0.58241   0.71883   0.30565   1.000
    O60     O    0.52411   0.66629   0.37934   1.000
    Zr61    Zr   0.03409   0.16853   0.19918   1.000
    O62     O    0.02347   0.21149   0.27144   1.000
    O63     O    0.08258   0.21826   0.19524   1.000
    O64     O    0.98556   0.21958   0.19528   1.000
    O65     O    0.08120   0.11763   0.20947   1.000
    O66     O    0.98533   0.11676   0.20734   1.000
    O67     O    0.02396   0.16586   0.12108   1.000
    Zr68    Zr   0.53409   0.16852   0.19918   1.000
    O69     O    0.52396   0.16585   0.12108   1.000
    O70     O    0.52378   0.21148   0.27144   1.000
    O71     O    0.58258   0.21826   0.19524   1.000
    O72     O    0.58120   0.11762   0.20948   1.000
    O73     O    0.48534   0.11675   0.20734   1.000
    O74     O    0.48557   0.21958   0.19527   1.000
    Zr75    Zr   0.46601   0.33081   0.69864   1.000
    O76     O    0.47587   0.33370   0.62066   1.000
    O77     O    0.41758   0.28113   0.69433   1.000
    O78     O    0.51483   0.38248   0.70664   1.000
    O79     O    0.51443   0.27991   0.69423   1.000
    O80     O    0.41898   0.38182   0.70884   1.000
    O81     O    0.47620   0.28784   0.77106   1.000
    Zr82    Zr   0.96604   0.33082   0.69860   1.000
    O83     O    0.91759   0.28115   0.69433   1.000
    O84     O    0.91901   0.38181   0.70883   1.000
    O85     O    0.01485   0.38249   0.70661   1.000
    O86     O    0.01445   0.27990   0.69419   1.000
    O87     O    0.97622   0.28784   0.77104   1.000
    O88     O    0.97558   0.33370   0.62063   1.000
    Zr89    Zr   0.21705   0.58110   0.76745   1.000
    O90     O    0.25644   0.54463   0.75412   1.000
    O91     O    0.17816   0.61746   0.78144   1.000
    O92     O    0.17851   0.54513   0.75233   1.000
    O93     O    0.25520   0.61853   0.78158   1.000
    Zr94    Zr   0.71706   0.58110   0.76740   1.000
    O95     O    0.67852   0.54513   0.75230   1.000
    O96     O    0.75646   0.54463   0.75410   1.000
    O97     O    0.67818   0.61746   0.78140   1.000
    O98     O    0.75521   0.61853   0.78154   1.000
    Zr99    Zr   0.28309   0.91933   0.26956   1.000
    O100    O    0.24375   0.95556   0.25583   1.000
    O101    O    0.32197   0.88293   0.28351   1.000
    O102    O    0.32168   0.95489   0.25411   1.000
    O103    O    0.24482   0.88192   0.28352   1.000
    Zr104   Zr   0.78309   0.91933   0.26956   1.000
    O105    O    0.82168   0.95490   0.25411   1.000
    O106    O    0.74376   0.95556   0.25584   1.000
    O107    O    0.82198   0.88293   0.28351   1.000
    O108    O    0.74483   0.88192   0.28352   1.000
    Zr109   Zr   0.28294   0.41888   0.23255   1.000
    O110    O    0.24479   0.38145   0.21842   1.000
    O111    O    0.32148   0.45486   0.24767   1.000
    O112    O    0.32183   0.38252   0.21856   1.000
    O113    O    0.24354   0.45536   0.24585   1.000
    Zr114   Zr   0.78294   0.41890   0.23254   1.000
    O115    O    0.74479   0.38146   0.21841   1.000
    O116    O    0.82183   0.38252   0.21857   1.000
    O117    O    0.74354   0.45537   0.24586   1.000
    O118    O    0.82148   0.45486   0.24764   1.000
    Zr119   Zr   0.21690   0.08065   0.73043   1.000
    O120    O    0.25517   0.11804   0.71646   1.000
    O121    O    0.17832   0.04456   0.74591   1.000
    O122    O    0.17802   0.11705   0.71648   1.000
    O123    O    0.25624   0.04420   0.74414   1.000
    Zr124   Zr   0.71692   0.08068   0.73047   1.000
    O125    O    0.75517   0.11808   0.71650   1.000
    O126    O    0.67803   0.11708   0.71651   1.000
    O127    O    0.75626   0.04421   0.74413   1.000
    O128    O    0.67833   0.04457   0.74589   1.000
    Zr129   Zr   0.46591   0.83145   0.80083   1.000
    O130    O    0.47603   0.83412   0.87893   1.000
    O131    O    0.51467   0.88293   0.79264   1.000
    O132    O    0.51444   0.78039   0.80473   1.000
    O133    O    0.41879   0.88224   0.79051   1.000
    O134    O    0.47622   0.78849   0.72856   1.000
    O135    O    0.41742   0.78172   0.80477   1.000
loop_
    _geom_bond_atom_site_label_1
    _geom_bond_atom_site_label_2
    _geom_bond_distance
    _geom_bond_site_symmetry_2
    _ccdc_geom_bond_type
    Zr40   O41       1.02557  1_655   S
    N38    O41       1.88622      .   S
    Zr40   O42       1.02969      .   S
    N11    O42       1.90825      .   S
    Zr40   O43       1.04200  1_655   S
    N12    O43       1.92276      .   S
    Zr40   O44       1.01016      .   S
    N9     O44       1.86210      .   S
    Zr40   O45       1.74653      .   S
    N3     O45       4.11397  1_454   S
    Zr40   O46       1.72260      .   S
    N0     O46       3.99287      .   S
    Zr47   O48       1.72559      .   S
    N3     O48       3.99981      .   S
    Zr47   O49       1.04350  1_455   S
    N21    O49       1.92921      .   S
    Zr47   O50       1.02413  1_455   S
    N31    O50       1.88354      .   S
    Zr47   O51       1.03057      .   S
    N18    O51       1.91126      .   S
    Zr47   O52       1.00983      .   S
    N16    O52       1.86167      .   S
    Zr47   O53       1.74405      .   S
    N0     O53       4.10920  1_655   S
    Zr54   O55       1.72510      .   S
    N2     O55       3.99887      .   S
    Zr54   O56       1.02421      .   S
    N30    O56       1.88373      .   S
    Zr54   O57       1.04346      .   S
    N20    O57       1.92905      .   S
    Zr54   O58       1.03049      .   S
    N19    O58       1.91120      .   S
    Zr54   O59       1.00979      .   S
    N17    O59       1.86167      .   S
    Zr54   O60       1.74404      .   S
    N1     O60       4.10917      .   S
    Zr61   O62       1.72299      .   S
    N4     O62       3.99371      .   S
    Zr61   O63       1.01016      .   S
    N24    O63       1.86213      .   S
    Zr61   O64       1.02551  1_455   S
    N23    O64       1.88625      .   S
    Zr61   O65       1.03058      .   S
    N26    O65       1.91094      .   S
    Zr61   O66       1.04438  1_455   S
    N29    O66       1.93000      .   S
    Zr61   O67       1.74705      .   S
    N6     O67       4.11593  1_656   S
    Zr68   O69       1.74704      .   S
    N7     O69       4.11593  1_556   S
    Zr68   O70       1.72255      .   S
    N5     O70       3.99272      .   S
    Zr68   O71       1.01015      .   S
    N25    O71       1.86209      .   S
    Zr68   O72       1.03056      .   S
    N27    O72       1.91094      .   S
    Zr68   O73       1.04444      .   S
    N28    O73       1.93009      .   S
    Zr68   O74       1.02557      .   S
    N22    O74       1.88638      .   S
    Zr75   O76       1.74409      .   S
    N5     O76       4.10930      .   S
    Zr75   O77       1.00988      .   S
    N32    O77       1.86171      .   S
    Zr75   O78       1.04358      .   S
    N37    O78       1.92930      .   S
    Zr75   O79       1.02412      .   S
    N15    O79       1.88368      .   S
    Zr75   O80       1.03047      .   S
    N34    O80       1.91116      .   S
    Zr75   O81       1.72510      .   S
    N7     O81       3.99877      .   S
    Zr82   O83       1.00976      .   S
    N33    O83       1.86169      .   S
    Zr82   O84       1.03055      .   S
    N35    O84       1.91129      .   S
    Zr82   O85       1.04353  1_655   S
    N36    O85       1.92919      .   S
    Zr82   O86       1.02410  1_655   S
    N14    O86       1.88353      .   S
    Zr82   O87       1.72541      .   S
    N6     O87       3.99928      .   S
    Zr82   O88       1.74333      .   S
    N4     O88       4.10708  1_455   S
    Zr89   O90       0.83846      .   S
    N34    O90       1.59313      .   S
    Zr89   O91       0.83742      .   S
    N38    O91       1.59156      .   S
    Zr89   O92       0.83806      .   S
    N36    O92       1.59254      .   S
    Zr89   O93       0.83761      .   S
    N8     O93       1.59172      .   S
    Zr94   O95       0.83797      .   S
    N37    O95       1.59242      .   S
    Zr94   O96       0.83833      .   S
    N35    O96       1.59292      .   S
    Zr94   O97       0.83751      .   S
    N39    O97       1.59171      .   S
    Zr94   O98       0.83755      .   S
    N9     O98       1.59170      .   S
    Zr99   O100      0.83873      .   S
    N26    O100      1.59359  1_545   S
    Zr99   O101      0.83688      .   S
    N30    O101      1.59057      .   S
    Zr99   O102      0.83840      .   S
    N28    O102      1.59315  1_545   S
    Zr99   O103      0.83710      .   S
    N16    O103      1.59084      .   S
    Zr104  O105      0.83839      .   S
    N29    O105      1.59312  1_545   S
    Zr104  O106      0.83869      .   S
    N27    O106      1.59353  1_545   S
    Zr104  O107      0.83696      .   S
    N31    O107      1.59078      .   S
    Zr104  O108      0.83709      .   S
    N17    O108      1.59080      .   S
    Zr109  O110      0.83752      .   S
    N24    O110      1.59158      .   S
    Zr109  O111      0.83814      .   S
    N20    O111      1.59268      .   S
    Zr109  O112      0.83748      .   S
    N22    O112      1.59158      .   S
    Zr109  O113      0.83841      .   S
    N18    O113      1.59296      .   S
    Zr114  O115      0.83752      .   S
    N25    O115      1.59158      .   S
    Zr114  O116      0.83734      .   S
    N23    O116      1.59144      .   S
    Zr114  O117      0.83850      .   S
    N19    O117      1.59321      .   S
    Zr114  O118      0.83794      .   S
    N21    O118      1.59249      .   S
    Zr119  O120      0.83710      .   S
    N32    O120      1.59084      .   S
    Zr119  O121      0.84275      .   S
    N12    O121      1.59750  1_565   S
    Zr119  O122      0.83697      .   S
    N14    O122      1.59081      .   S
    Zr119  O123      0.84036      .   S
    N10    O123      1.59504  1_565   S
    Zr124  O125      0.83699      .   S
    N33    O125      1.59064      .   S
    Zr124  O126      0.83699      .   S
    N15    O126      1.59083      .   S
    Zr124  O127      0.84017      .   S
    N11    O127      1.59482  1_565   S
    Zr124  O128      0.84260      .   S
    N13    O128      1.59721  1_565   S
    Zr129  O130      1.74696      .   S
    N2     O130      4.11568  1_554   S
    Zr129  O131      1.04198      .   S
    N13    O131      1.92282      .   S
    Zr129  O132      1.02560      .   S
    N39    O132      1.88638      .   S
    Zr129  O133      1.02973      .   S
    N10    O133      1.90820      .   S
    Zr129  O134      1.72260      .   S
    N1     O134      3.99290      .   S
    Zr129  O135      1.01009      .   S
    N8     O135      1.86199      .   S
