# CIF file generated by openbabel 2.4.90, see http://openbabel.sf.net
data_I
_chemical_name_common ''
_cell_length_a 13.637
_cell_length_b 13.618
_cell_length_c 16.926
_cell_angle_alpha 90.002
_cell_angle_beta 90.005
_cell_angle_gamma 117.781
_space_group_name_H-M_alt 'P 1'
_space_group_name_Hall 'P 1'
loop_
    _symmetry_equiv_pos_as_xyz
    x,y,z
loop_
    _atom_site_label
    _atom_site_type_symbol
    _atom_site_fract_x
    _atom_site_fract_y
    _atom_site_fract_z
    _atom_site_occupancy
    Zn0     Zn   0.91017   0.39030   0.99960   1.000
    Zn1     Zn   0.91017   0.89030   0.50039   1.000
    Zn2     Zn   0.08924   0.60965   0.00000   1.000
    Zn3     Zn   0.08924   0.10963   0.49679   1.000
    C4      C    0.90484   0.06089   0.38696   1.000
    C5      C    0.09218   0.42800   0.10720   1.000
    C6      C    0.09449   0.43948   0.88895   1.000
    C7      C    0.90676   0.07147   0.60471   1.000
    C8      C    0.09446   0.93946   0.61106   1.000
    C9      C    0.90676   0.57149   0.89529   1.000
    C10     C    0.90483   0.56090   0.11302   1.000
    C11     C    0.09218   0.92802   0.39276   1.000
    O12     O    0.99582   0.13831   0.41273   1.000
    O13     O    0.85824   0.96024   0.41030   1.000
    O14     O    0.13908   0.52996   0.08661   1.000
    O15     O    0.99885   0.35341   0.08258   1.000
    O16     O    0.00244   0.36257   0.91362   1.000
    O17     O    0.14245   0.53944   0.91378   1.000
    O18     O    0.85859   0.96996   0.58307   1.000
    O19     O    0.00000   0.14552   0.58057   1.000
    O20     O    0.00241   0.86254   0.58637   1.000
    O21     O    0.14244   0.03940   0.58622   1.000
    O22     O    0.85861   0.46997   0.91692   1.000
    O23     O    0.00000   0.64554   0.91942   1.000
    O24     O    0.99581   0.63832   0.08727   1.000
    O25     O    0.85825   0.46024   0.08960   1.000
    O26     O    0.13910   0.02996   0.41339   1.000
    O27     O    0.99886   0.85343   0.41742   1.000
    Ts28    Ts   0.86048   0.34160   0.99809   1.000
    Ts29    Ts   0.86048   0.84161   0.50190   1.000
    Ts30    Ts   0.13894   0.65838   0.00000   1.000
    Ts31    Ts   0.13894   0.15836   0.49578   1.000
    Og32    Og   0.88568   0.07054   0.36538   1.000
    Og33    Og   0.11231   0.41650   0.12691   1.000
    Og34    Og   0.11349   0.42986   0.86722   1.000
    Og35    Og   0.88691   0.08300   0.62464   1.000
    Og36    Og   0.11346   0.92984   0.63279   1.000
    Og37    Og   0.88690   0.58301   0.87536   1.000
    Og38    Og   0.88568   0.57056   0.13460   1.000
    Og39    Og   0.11231   0.91651   0.37307   1.000
loop_
    _geom_bond_atom_site_label_1
    _geom_bond_atom_site_label_2
    _geom_bond_distance
    _geom_bond_site_symmetry_2
    _ccdc_geom_bond_type
    Zn2    O14       2.11569      .   S
    Zn2    O24       2.10275  1_455   S
    Zn2    O17       2.05358  1_554   S
    Zn2    O23       2.03333  1_554   S
    O15    C5        1.27286  1_655   S
    O15    Zn0       2.06231  1_554   S
    O14    C5        1.27700      .   S
    O24    C10       1.27336      .   S
    O25    C10       1.27593      .   S
    O25    Zn0       2.08759  1_554   S
    C4     O13       1.27537  1_545   S
    C4     O12       1.27340      .   S
    C11    O26       1.27696  1_565   S
    C11    O27       1.27301  1_455   S
    O13    Zn1       2.08864      .   S
    O12    Zn3       2.06483  1_655   S
    O26    Zn3       2.07837      .   S
    O27    Zn1       2.06248      .   S
    Zn3    O19       2.07017      .   S
    Zn3    O21       2.09258      .   S
    Zn1    O18       2.08357      .   S
    Zn1    O20       2.07029  1_655   S
    O19    C7        1.26702  1_455   S
    O18    C7        1.27673  1_565   S
    O21    C8        1.27562  1_545   S
    O20    C8        1.27348      .   S
    C6     O16       1.27347      .   S
    C6     O17       1.27576      .   S
    C9     O22       1.27687      .   S
    C9     O23       1.26693  1_655   S
    O16    Zn0       2.07046  1_455   S
    O22    Zn0       2.08358      .   S
    Zn3    Zn1       2.84411  1_445   S
    Zn0    Zn2       2.84374  1_656   S
    Zn0    Ts28      0.69331      .   S
    Zn1    Ts29      0.69330      .   S
    Zn2    Ts30      0.69308      .   S
    Zn3    Ts31      0.69329      .   S
    C4     Og32      0.50093      .   S
    C5     Og33      0.50119      .   S
    C6     Og34      0.50117      .   S
    C7     Og35      0.50139      .   S
    C8     Og36      0.50118      .   S
    C9     Og37      0.50139      .   S
    C10    Og38      0.50095      .   S
    C11    Og39      0.50110      .   S
