# CIF file generated by openbabel 2.4.90, see http://openbabel.sf.net
data_I
_chemical_name_common ''
_cell_length_a 18.464
_cell_length_b 18.456
_cell_length_c 18.454
_cell_angle_alpha 59.998
_cell_angle_beta 60.026
_cell_angle_gamma 60.029
_space_group_name_H-M_alt 'P 1'
_space_group_name_Hall 'P 1'
loop_
    _symmetry_equiv_pos_as_xyz
    x,y,z
loop_
    _atom_site_label
    _atom_site_type_symbol
    _atom_site_fract_x
    _atom_site_fract_y
    _atom_site_fract_z
    _atom_site_occupancy
    H0      H    0.35954   0.83653   0.06941   1.000
    H1      H    0.45509   0.74068   0.97370   1.000
    H2      H    0.06924   0.35926   0.83652   1.000
    H3      H    0.97341   0.45484   0.74070   1.000
    H4      H    0.83669   0.06940   0.35984   1.000
    H5      H    0.74078   0.97368   0.45537   1.000
    H6      H    0.83669   0.35985   0.06940   1.000
    H7      H    0.74077   0.45539   0.97375   1.000
    H8      H    0.35951   0.06937   0.83652   1.000
    H9      H    0.45506   0.97364   0.74067   1.000
    H10     H    0.06925   0.83654   0.35930   1.000
    H11     H    0.97344   0.74070   0.45487   1.000
    H12     H    0.35674   0.06948   0.35748   1.000
    H13     H    0.45237   0.97422   0.45302   1.000
    H14     H    0.35723   0.83674   0.35679   1.000
    H15     H    0.45346   0.74083   0.45282   1.000
    H16     H    0.35673   0.35743   0.06949   1.000
    H17     H    0.45237   0.45297   0.97426   1.000
    H18     H    0.35722   0.35682   0.83670   1.000
    H19     H    0.45345   0.45286   0.74081   1.000
    H20     H    0.06950   0.35718   0.35725   1.000
    H21     H    0.97415   0.45276   0.45282   1.000
    H22     H    0.83704   0.35693   0.35690   1.000
    H23     H    0.74107   0.45305   0.45300   1.000
    H24     H    0.16325   0.64015   0.93058   1.000
    H25     H    0.25917   0.54461   0.02627   1.000
    H26     H    0.64043   0.93063   0.16350   1.000
    H27     H    0.54489   0.02637   0.25930   1.000
    H28     H    0.93070   0.16347   0.64070   1.000
    H29     H    0.02650   0.25930   0.54515   1.000
    H30     H    0.64040   0.16348   0.93061   1.000
    H31     H    0.54486   0.25933   0.02632   1.000
    H32     H    0.93070   0.64075   0.16350   1.000
    H33     H    0.02653   0.54517   0.25932   1.000
    H34     H    0.16325   0.93061   0.64018   1.000
    H35     H    0.25916   0.02632   0.54465   1.000
    H36     H    0.93044   0.64282   0.64277   1.000
    H37     H    0.02579   0.54724   0.54720   1.000
    H38     H    0.16291   0.64307   0.64312   1.000
    H39     H    0.25887   0.54695   0.54702   1.000
    H40     H    0.64321   0.64258   0.93053   1.000
    H41     H    0.54756   0.54704   0.02576   1.000
    H42     H    0.64272   0.64318   0.16332   1.000
    H43     H    0.54649   0.54715   0.25921   1.000
    H44     H    0.64321   0.93053   0.64254   1.000
    H45     H    0.54757   0.02579   0.54700   1.000
    H46     H    0.64271   0.16326   0.64323   1.000
    H47     H    0.54648   0.25917   0.54720   1.000
    C48     C    0.38082   0.86586   0.99740   1.000
    C49     C    0.43391   0.81260   0.94416   1.000
    C50     C    0.99726   0.38070   0.86580   1.000
    C51     C    0.94398   0.43379   0.81264   1.000
    C52     C    0.86593   0.99739   0.38102   1.000
    C53     C    0.81264   0.94416   0.43409   1.000
    C54     C    0.86593   0.38103   0.99743   1.000
    C55     C    0.81264   0.43410   0.94420   1.000
    C56     C    0.38081   0.99736   0.86586   1.000
    C57     C    0.43389   0.94412   0.81261   1.000
    C58     C    0.99726   0.86587   0.38073   1.000
    C59     C    0.94400   0.81263   0.43381   1.000
    C60     C    0.35129   0.95876   0.35146   1.000
    C61     C    0.37804   0.99762   0.37849   1.000
    C62     C    0.43136   0.94451   0.43174   1.000
    C63     C    0.37851   0.86599   0.37829   1.000
    C64     C    0.43182   0.81287   0.43150   1.000
    C65     C    0.45863   0.85175   0.45862   1.000
    C66     C    0.35129   0.35146   0.95875   1.000
    C67     C    0.37805   0.37846   0.99763   1.000
    C68     C    0.43136   0.43171   0.94453   1.000
    C69     C    0.37850   0.37831   0.86597   1.000
    C70     C    0.43182   0.43152   0.81285   1.000
    C71     C    0.45862   0.45862   0.85176   1.000
    C72     C    0.95890   0.35138   0.35139   1.000
    C73     C    0.99766   0.37831   0.37835   1.000
    C74     C    0.94452   0.43158   0.43162   1.000
    C75     C    0.86621   0.37836   0.37834   1.000
    C76     C    0.81305   0.43161   0.43159   1.000
    C77     C    0.85184   0.45861   0.45862   1.000
    C78     C    0.35369   0.95861   0.95863   1.000
    C79     C    0.46075   0.85135   0.85138   1.000
    C80     C    0.95861   0.35373   0.95864   1.000
    C81     C    0.85128   0.46078   0.85142   1.000
    C82     C    0.95861   0.95863   0.35374   1.000
    C83     C    0.85130   0.85139   0.46078   1.000
    C84     C    0.13401   0.61898   0.00259   1.000
    C85     C    0.18730   0.56590   0.05580   1.000
    C86     C    0.61914   0.00264   0.13416   1.000
    C87     C    0.56605   0.05589   0.18741   1.000
    C88     C    0.00268   0.13413   0.61929   1.000
    C89     C    0.05594   0.18738   0.56621   1.000
    C90     C    0.61912   0.13415   0.00262   1.000
    C91     C    0.56603   0.18741   0.05580   1.000
    C92     C    0.00268   0.61931   0.13414   1.000
    C93     C    0.05596   0.56622   0.18738   1.000
    C94     C    0.13401   0.00261   0.61900   1.000
    C95     C    0.18730   0.05585   0.56593   1.000
    C96     C    0.04104   0.64862   0.64862   1.000
    C97     C    0.00228   0.62169   0.62167   1.000
    C98     C    0.05542   0.56842   0.56840   1.000
    C99     C    0.13373   0.62165   0.62168   1.000
    C100    C    0.18689   0.56840   0.56840   1.000
    C101    C    0.14811   0.54140   0.54140   1.000
    C102    C    0.64865   0.64855   0.04127   1.000
    C103    C    0.62189   0.62155   0.00239   1.000
    C104    C    0.56858   0.56830   0.05549   1.000
    C105    C    0.62144   0.62170   0.13405   1.000
    C106    C    0.56813   0.56849   0.18717   1.000
    C107    C    0.54132   0.54139   0.14826   1.000
    C108    C    0.64865   0.04125   0.64856   1.000
    C109    C    0.62190   0.00239   0.62153   1.000
    C110    C    0.56858   0.05550   0.56828   1.000
    C111    C    0.62143   0.13401   0.62173   1.000
    C112    C    0.56812   0.18714   0.56852   1.000
    C113    C    0.54131   0.14825   0.54140   1.000
    C114    C    0.04133   0.64628   0.04138   1.000
    C115    C    0.14866   0.53922   0.14860   1.000
    C116    C    0.64626   0.04139   0.04139   1.000
    C117    C    0.53919   0.14866   0.14864   1.000
    C118    C    0.04133   0.04138   0.64628   1.000
    C119    C    0.14864   0.14862   0.53924   1.000
loop_
    _geom_bond_atom_site_label_1
    _geom_bond_atom_site_label_2
    _geom_bond_distance
    _geom_bond_site_symmetry_2
    _ccdc_geom_bond_type
    C103   C102      1.40177      .   S
    C103   C104      1.39093      .   S
    C103   H40       1.08650  1_554   S
    C84    C114      1.40348      .   S
    C84    C85       1.39016      .   S
    C84    H24       1.08843  1_554   S
    C90    C116      1.40351      .   S
    C90    C91       1.38963      .   S
    C90    H30       1.08845  1_554   S
    H41    C104      1.08885      .   S
    H25    C85       1.08753      .   S
    H31    C91       1.08752      .   S
    C102   C105      1.40363      .   S
    C114   C92       1.40336      .   S
    C116   C86       1.40352      .   S
    C104   C107      1.40331      .   S
    C85    C115      1.40395      .   S
    C91    C117      1.40453      .   S
    H6     C54       1.08784  1_554   S
    H0     C48       1.08845  1_554   S
    H16    C67       1.08650  1_554   S
    C105   H42       1.08874      .   S
    C105   C106      1.39039      .   S
    C92    H32       1.08900  1_455   S
    C92    C93       1.39035      .   S
    C86    H26       1.08854  1_545   S
    C86    C87       1.39034      .   S
    C107   C106      1.40447      .   S
    C115   C93       1.40375      .   S
    C117   C87       1.40377      .   S
    C106   H43       1.08857      .   S
    C93    H33       1.08765      .   S
    C87    H27       1.08693      .   S
    C72    C75       1.40364      .   S
    C72    C73       1.40182      .   S
    C60    C63       1.40362      .   S
    C60    C61       1.40174      .   S
    C82    C58       1.40347      .   S
    C82    C52       1.40347      .   S
    H14    C63       1.08869      .   S
    H22    C75       1.08874      .   S
    H20    C73       1.08719  1_455   S
    H12    C61       1.08671  1_545   S
    H10    C58       1.08901  1_455   S
    H4     C52       1.08853  1_545   S
    C63    C64       1.39043      .   S
    C75    C76       1.39036      .   S
    C73    C74       1.39090      .   S
    C61    C62       1.39098      .   S
    C58    C59       1.39035      .   S
    C52    C53       1.39037      .   S
    C64    H15       1.08864      .   S
    C64    C65       1.40438      .   S
    C76    H23       1.08863      .   S
    C76    C77       1.40433      .   S
    C74    H21       1.08892      .   S
    C74    C77       1.40335      .   S
    C62    H13       1.08883      .   S
    C62    C65       1.40333      .   S
    C59    H11       1.08757      .   S
    C59    C83       1.40374      .   S
    C53    H5        1.08754      .   S
    C53    C83       1.40371      .   S
    C119   C95       1.40371      .   S
    C119   C89       1.40376      .   S
    C113   C110      1.40333      .   S
    C113   C112      1.40438      .   S
    C101   C98       1.40335      .   S
    C101   C100      1.40383      .   S
    H35    C95       1.08755      .   S
    H29    C89       1.08756      .   S
    H45    C110      1.08882      .   S
    H39    C100      1.08869      .   S
    H37    C98       1.08887      .   S
    H47    C112      1.08864      .   S
    C95    C94       1.39035      .   S
    C89    C88       1.39035      .   S
    C110   C109      1.39099      .   S
    C98    C97       1.39095      .   S
    C100   C99       1.39080      .   S
    C112   C111      1.39043      .   S
    C94    H34       1.08852  1_545   S
    C94    C118      1.40349      .   S
    C88    H28       1.08900  1_455   S
    C88    C118      1.40347      .   S
    C109   H44       1.08671  1_545   S
    C109   C108      1.40171      .   S
    C97    H36       1.08719  1_455   S
    C97    C96       1.40169      .   S
    C99    H38       1.08869      .   S
    C99    C96       1.40365      .   S
    C111   H46       1.08866      .   S
    C111   C108      1.40362      .   S
    H9     C57       1.08766      .   S
    H3     C51       1.08765      .   S
    H19    C70       1.08857      .   S
    C57    C79       1.40377      .   S
    C57    C56       1.39034      .   S
    C51    C81       1.40375      .   S
    C51    C50       1.38931      .   S
    C70    C71       1.40445      .   S
    C70    C69       1.39040      .   S
    H2     C50       1.08890  1_455   S
    H8     C56       1.08854  1_545   S
    H18    C69       1.08873      .   S
    C79    C49       1.40366      .   S
    C81    C55       1.40366      .   S
    C71    C68       1.40332      .   S
    C50    C80       1.40453      .   S
    C56    C78       1.40352      .   S
    C69    C66       1.40363      .   S
    C49    H1        1.08758      .   S
    C49    C48       1.39043      .   S
    C55    H7        1.08755      .   S
    C55    C54       1.39042      .   S
    C68    H17       1.08886      .   S
    C68    C67       1.39094      .   S
    C78    C48       1.40350      .   S
    C80    C54       1.40348      .   S
    C66    C67       1.40177      .   S
