# CIF file generated by openbabel 2.4.90, see http://openbabel.sf.net
data_I
_chemical_name_common ''
_cell_length_a 22.113
_cell_length_b 22.118
_cell_length_c 14.068
_cell_angle_alpha 88.045
_cell_angle_beta 90.645
_cell_angle_gamma 80.131
_space_group_name_H-M_alt 'P 1'
_space_group_name_Hall 'P 1'
loop_
    _symmetry_equiv_pos_as_xyz
    x,y,z
loop_
    _atom_site_label
    _atom_site_type_symbol
    _atom_site_fract_x
    _atom_site_fract_y
    _atom_site_fract_z
    _atom_site_occupancy
    Zr0     Zr   0.36950   0.16679   0.80792   1.000
    Zr1     Zr   0.37004   0.66674   0.80750   1.000
    Zr2     Zr   0.86929   0.16689   0.80760   1.000
    Zr3     Zr   0.86999   0.66666   0.80795   1.000
    Zr4     Zr   0.36571   0.17222   0.60440   1.000
    Zr5     Zr   0.36717   0.67189   0.60407   1.000
    Zr6     Zr   0.86669   0.17188   0.60406   1.000
    Zr7     Zr   0.86716   0.67193   0.60439   1.000
    Zr8     Zr   0.13001   0.33333   0.19202   1.000
    Zr9     Zr   0.13069   0.83310   0.19241   1.000
    Zr10    Zr   0.62998   0.33314   0.19241   1.000
    Zr11    Zr   0.63049   0.83316   0.19206   1.000
    Zr12    Zr   0.13284   0.32806   0.39558   1.000
    Zr13    Zr   0.13329   0.82811   0.39593   1.000
    Zr14    Zr   0.63285   0.32804   0.39592   1.000
    Zr15    Zr   0.63421   0.82773   0.39558   1.000
    Zr16    Zr   0.35946   0.29029   0.70668   1.000
    Zr17    Zr   0.36086   0.78992   0.70660   1.000
    Zr18    Zr   0.86041   0.29003   0.70693   1.000
    Zr19    Zr   0.86050   0.78989   0.70696   1.000
    Zr20    Zr   0.37751   0.04954   0.71460   1.000
    Zr21    Zr   0.37846   0.54935   0.71482   1.000
    Zr22    Zr   0.87737   0.04944   0.71496   1.000
    Zr23    Zr   0.87845   0.54932   0.71500   1.000
    Zr24    Zr   0.24788   0.17348   0.70399   1.000
    Zr25    Zr   0.24896   0.67314   0.70273   1.000
    Zr26    Zr   0.74812   0.17375   0.70249   1.000
    Zr27    Zr   0.74895   0.67303   0.70276   1.000
    Zr28    Zr   0.48669   0.16622   0.70316   1.000
    Zr29    Zr   0.48783   0.66542   0.70270   1.000
    Zr30    Zr   0.98688   0.16557   0.70249   1.000
    Zr31    Zr   0.98779   0.66554   0.70395   1.000
    Zr32    Zr   0.13948   0.21011   0.29303   1.000
    Zr33    Zr   0.13958   0.70995   0.29304   1.000
    Zr34    Zr   0.63914   0.20995   0.29340   1.000
    Zr35    Zr   0.64053   0.70964   0.29329   1.000
    Zr36    Zr   0.12155   0.45067   0.28492   1.000
    Zr37    Zr   0.12262   0.95055   0.28504   1.000
    Zr38    Zr   0.62171   0.45054   0.28520   1.000
    Zr39    Zr   0.62247   0.95038   0.28542   1.000
    Zr40    Zr   0.25106   0.32695   0.29722   1.000
    Zr41    Zr   0.25185   0.82623   0.29753   1.000
    Zr42    Zr   0.75114   0.32620   0.29728   1.000
    Zr43    Zr   0.75211   0.82640   0.29600   1.000
    Zr44    Zr   0.01220   0.33442   0.29591   1.000
    Zr45    Zr   0.01309   0.83443   0.29751   1.000
    Zr46    Zr   0.51218   0.33458   0.29720   1.000
    Zr47    Zr   0.51327   0.83372   0.29684   1.000
    Zr48    Zr   0.35984   0.26145   0.78694   1.000
    Zr49    Zr   0.35931   0.76159   0.78690   1.000
    Zr50    Zr   0.85671   0.26224   0.78712   1.000
    Zr51    Zr   0.85944   0.76135   0.78719   1.000
    Zr52    Zr   0.35433   0.26763   0.62550   1.000
    Zr53    Zr   0.35794   0.76664   0.62538   1.000
    Zr54    Zr   0.85951   0.26628   0.62572   1.000
    Zr55    Zr   0.85717   0.76682   0.62567   1.000
    Zr56    Zr   0.37791   0.07811   0.63472   1.000
    Zr57    Zr   0.37738   0.57813   0.63483   1.000
    Zr58    Zr   0.87481   0.07833   0.63490   1.000
    Zr59    Zr   0.87747   0.57810   0.63512   1.000
    Zr60    Zr   0.37748   0.07316   0.79617   1.000
    Zr61    Zr   0.38004   0.57278   0.79629   1.000
    Zr62    Zr   0.88019   0.07280   0.79627   1.000
    Zr63    Zr   0.87993   0.57274   0.79656   1.000
    Zr64    Zr   0.27433   0.17463   0.78486   1.000
    Zr65    Zr   0.27587   0.67239   0.78366   1.000
    Zr66    Zr   0.77507   0.17186   0.78357   1.000
    Zr67    Zr   0.77578   0.67238   0.78374   1.000
    Zr68    Zr   0.27327   0.17531   0.62338   1.000
    Zr69    Zr   0.27385   0.67706   0.62208   1.000
    Zr70    Zr   0.77302   0.17899   0.62212   1.000
    Zr71    Zr   0.77391   0.67691   0.62216   1.000
    Zr72    Zr   0.45855   0.17190   0.62289   1.000
    Zr73    Zr   0.46041   0.66930   0.62195   1.000
    Zr74    Zr   0.96015   0.16693   0.62152   1.000
    Zr75    Zr   0.96020   0.66958   0.62333   1.000
    Zr76    Zr   0.46248   0.16044   0.78390   1.000
    Zr77    Zr   0.46302   0.66150   0.78340   1.000
    Zr78    Zr   0.96143   0.16387   0.78308   1.000
    Zr79    Zr   0.96310   0.66140   0.78466   1.000
    Zr80    Zr   0.14056   0.23864   0.21279   1.000
    Zr81    Zr   0.14328   0.73775   0.21286   1.000
    Zr82    Zr   0.64032   0.23826   0.21303   1.000
    Zr83    Zr   0.64018   0.73848   0.21303   1.000
    Zr84    Zr   0.14281   0.23317   0.37432   1.000
    Zr85    Zr   0.14047   0.73370   0.37425   1.000
    Zr86    Zr   0.64241   0.23321   0.37457   1.000
    Zr87    Zr   0.64560   0.73231   0.37448   1.000
    Zr88    Zr   0.12255   0.42189   0.36400   1.000
    Zr89    Zr   0.12519   0.92166   0.36510   1.000
    Zr90    Zr   0.62257   0.42182   0.36520   1.000
    Zr91    Zr   0.62212   0.92179   0.36531   1.000
    Zr92    Zr   0.12007   0.42723   0.20345   1.000
    Zr93    Zr   0.11981   0.92718   0.20373   1.000
    Zr94    Zr   0.62039   0.42705   0.20370   1.000
    Zr95    Zr   0.62249   0.92678   0.20385   1.000
    Zr96    Zr   0.22423   0.32761   0.21624   1.000
    Zr97    Zr   0.22489   0.82814   0.21646   1.000
    Zr98    Zr   0.72434   0.32605   0.21641   1.000
    Zr99    Zr   0.72565   0.82536   0.21512   1.000
    Zr100   Zr   0.22609   0.32307   0.37782   1.000
    Zr101   Zr   0.22696   0.82098   0.37791   1.000
    Zr102   Zr   0.72615   0.32304   0.37799   1.000
    Zr103   Zr   0.72673   0.82442   0.37660   1.000
    Zr104   Zr   0.03979   0.33043   0.37650   1.000
    Zr105   Zr   0.03982   0.83306   0.37848   1.000
    Zr106   Zr   0.53965   0.33058   0.37800   1.000
    Zr107   Zr   0.54140   0.82808   0.37713   1.000
    Zr108   Zr   0.03687   0.33859   0.21519   1.000
    Zr109   Zr   0.03855   0.83612   0.21692   1.000
    Zr110   Zr   0.53697   0.33859   0.21650   1.000
    Zr111   Zr   0.53751   0.83944   0.21609   1.000
    O112    O    0.12504   0.38028   0.19773   1.000
    O113    O    0.13528   0.28599   0.20241   1.000
    O114    O    0.08344   0.33596   0.20361   1.000
    O115    O    0.17712   0.33047   0.20413   1.000
    O116    O    0.62649   0.87997   0.19796   1.000
    O117    O    0.63533   0.78582   0.20255   1.000
    O118    O    0.67807   0.82926   0.20359   1.000
    O119    O    0.58400   0.83630   0.20408   1.000
    O120    O    0.62518   0.38009   0.19806   1.000
    O121    O    0.63515   0.28570   0.20272   1.000
    O122    O    0.67716   0.32959   0.20441   1.000
    O123    O    0.58347   0.33586   0.20446   1.000
    O124    O    0.12525   0.88014   0.19807   1.000
    O125    O    0.13698   0.78542   0.20264   1.000
    O126    O    0.17779   0.83062   0.20444   1.000
    O127    O    0.08462   0.83461   0.20467   1.000
    O128    O    0.12081   0.43895   0.24419   1.000
    O129    O    0.62105   0.43879   0.24445   1.000
    O130    O    0.12122   0.93886   0.24439   1.000
    O131    O    0.62248   0.93858   0.24464   1.000
    O132    O    0.14002   0.22437   0.25291   1.000
    O133    O    0.14143   0.72385   0.25295   1.000
    O134    O    0.64035   0.72406   0.25316   1.000
    O135    O    0.63973   0.22410   0.25322   1.000
    O136    O    0.73888   0.82588   0.25556   1.000
    O137    O    0.02453   0.33650   0.25555   1.000
    O138    O    0.52539   0.83658   0.25647   1.000
    O139    O    0.23764   0.32728   0.25673   1.000
    O140    O    0.73774   0.32612   0.25685   1.000
    O141    O    0.23837   0.82718   0.25700   1.000
    O142    O    0.52458   0.33658   0.25685   1.000
    O143    O    0.02582   0.83527   0.25722   1.000
    O144    O    0.12205   0.43628   0.32446   1.000
    O145    O    0.12391   0.93610   0.32507   1.000
    O146    O    0.62214   0.43618   0.32520   1.000
    O147    O    0.62229   0.93608   0.32537   1.000
    O148    O    0.14114   0.22164   0.33367   1.000
    O149    O    0.14003   0.72183   0.33365   1.000
    O150    O    0.64307   0.72098   0.33389   1.000
    O151    O    0.64077   0.22158   0.33399   1.000
    O152    O    0.02599   0.33243   0.33621   1.000
    O153    O    0.73942   0.82541   0.33630   1.000
    O154    O    0.52734   0.83090   0.33699   1.000
    O155    O    0.52591   0.33258   0.33760   1.000
    O156    O    0.23858   0.32501   0.33752   1.000
    O157    O    0.73865   0.32462   0.33764   1.000
    O158    O    0.02645   0.83375   0.33800   1.000
    O159    O    0.23940   0.82360   0.33772   1.000
    O160    O    0.12769   0.37498   0.37979   1.000
    O161    O    0.12924   0.87488   0.38052   1.000
    O162    O    0.62771   0.37493   0.38056   1.000
    O163    O    0.62817   0.87476   0.38045   1.000
    O164    O    0.13688   0.78090   0.38509   1.000
    O165    O    0.13782   0.28062   0.38495   1.000
    O166    O    0.63991   0.78002   0.38503   1.000
    O167    O    0.63763   0.28062   0.38525   1.000
    O168    O    0.08631   0.32925   0.38604   1.000
    O169    O    0.68047   0.82608   0.38609   1.000
    O170    O    0.58781   0.82791   0.38636   1.000
    O171    O    0.17947   0.32557   0.38670   1.000
    O172    O    0.18012   0.82454   0.38692   1.000
    O173    O    0.67950   0.32554   0.38696   1.000
    O174    O    0.58625   0.32931   0.38696   1.000
    O175    O    0.08655   0.83059   0.38721   1.000
    O176    O    0.91342   0.16941   0.61279   1.000
    O177    O    0.81986   0.17543   0.61309   1.000
    O178    O    0.86310   0.21908   0.61489   1.000
    O179    O    0.87075   0.12510   0.61948   1.000
    O180    O    0.41379   0.67059   0.61301   1.000
    O181    O    0.32051   0.67447   0.61308   1.000
    O182    O    0.36255   0.71927   0.61473   1.000
    O183    O    0.37227   0.62501   0.61945   1.000
    O184    O    0.82054   0.67442   0.61328   1.000
    O185    O    0.91368   0.67075   0.61386   1.000
    O186    O    0.86216   0.71938   0.61503   1.000
    O187    O    0.87231   0.62501   0.61976   1.000
    O188    O    0.41213   0.17206   0.61365   1.000
    O189    O    0.31949   0.17376   0.61389   1.000
    O190    O    0.36002   0.21992   0.61495   1.000
    O191    O    0.37181   0.12516   0.61956   1.000
    O192    O    0.97352   0.16625   0.66201   1.000
    O193    O    0.47412   0.66736   0.66233   1.000
    O194    O    0.26140   0.67510   0.66241   1.000
    O195    O    0.76057   0.17637   0.66231   1.000
    O196    O    0.76143   0.67497   0.66246   1.000
    O197    O    0.47262   0.16906   0.66303   1.000
    O198    O    0.97399   0.66756   0.66364   1.000
    O199    O    0.26057   0.17440   0.66369   1.000
    O200    O    0.35940   0.77828   0.66599   1.000
    O201    O    0.35689   0.27896   0.66609   1.000
    O202    O    0.85884   0.77836   0.66631   1.000
    O203    O    0.85996   0.27816   0.66633   1.000
    O204    O    0.37771   0.06383   0.67466   1.000
    O205    O    0.37792   0.56374   0.67483   1.000
    O206    O    0.87609   0.06389   0.67493   1.000
    O207    O    0.87796   0.56371   0.67506   1.000
    O208    O    0.97415   0.16472   0.74279   1.000
    O209    O    0.76160   0.17280   0.74303   1.000
    O210    O    0.47543   0.66346   0.74305   1.000
    O211    O    0.26241   0.67276   0.74320   1.000
    O212    O    0.76237   0.67270   0.74325   1.000
    O213    O    0.47459   0.16333   0.74353   1.000
    O214    O    0.97545   0.66347   0.74431   1.000
    O215    O    0.26110   0.17406   0.74443   1.000
    O216    O    0.36009   0.77575   0.74675   1.000
    O217    O    0.35965   0.27587   0.74681   1.000
    O218    O    0.85856   0.27613   0.74703   1.000
    O219    O    0.85997   0.77562   0.74708   1.000
    O220    O    0.37750   0.06135   0.75538   1.000
    O221    O    0.37925   0.56107   0.75556   1.000
    O222    O    0.87878   0.06112   0.75562   1.000
    O223    O    0.87919   0.56103   0.75578   1.000
    O224    O    0.91536   0.16538   0.79534   1.000
    O225    O    0.41653   0.66412   0.79545   1.000
    O226    O    0.82218   0.16937   0.79559   1.000
    O227    O    0.32296   0.66956   0.79558   1.000
    O228    O    0.82289   0.66952   0.79585   1.000
    O229    O    0.41599   0.16361   0.79591   1.000
    O230    O    0.91655   0.66403   0.79631   1.000
    O231    O    0.32192   0.17071   0.79639   1.000
    O232    O    0.36467   0.71416   0.79720   1.000
    O233    O    0.36467   0.21412   0.79743   1.000
    O234    O    0.86300   0.21456   0.79736   1.000
    O235    O    0.86471   0.71400   0.79757   1.000
    O236    O    0.37349   0.11998   0.80205   1.000
    O237    O    0.87474   0.11985   0.80194   1.000
    O238    O    0.37504   0.61976   0.80190   1.000
    O239    O    0.87496   0.61970   0.80226   1.000
    O240    O    0.36761   0.16950   0.70616   1.000
    O241    O    0.36861   0.66931   0.70579   1.000
    O242    O    0.86799   0.16938   0.70583   1.000
    O243    O    0.86858   0.66929   0.70617   1.000
    O244    O    0.13142   0.33070   0.29380   1.000
    O245    O    0.13199   0.83060   0.29417   1.000
    O246    O    0.63141   0.33059   0.29417   1.000
    O247    O    0.63235   0.83045   0.29382   1.000
    N248    N    0.37110   0.41938   0.71063   1.000
    O249    O    0.37423   0.46747   0.71152   1.000
    O250    O    0.36681   0.37150   0.70920   1.000
    N251    N    0.86844   0.16761   0.20574   1.000
    O252    O    0.86916   0.16752   0.04339   1.000
    O253    O    0.86742   0.16887   0.36825   1.000
    N254    N    0.88243   0.83140   0.29695   1.000
    O255    O    0.83407   0.82968   0.29661   1.000
    O256    O    0.93086   0.83262   0.29715   1.000
    N257    N    0.37121   0.91933   0.71072   1.000
    O258    O    0.37392   0.96752   0.71221   1.000
    O259    O    0.36741   0.87133   0.70916   1.000
    N260    N    0.61764   0.16866   0.70218   1.000
    O261    O    0.66607   0.17037   0.70225   1.000
    O262    O    0.56911   0.16765   0.70248   1.000
    N263    N    0.12996   0.33249   0.79327   1.000
    O264    O    0.13132   0.33116   0.63101   1.000
    O265    O    0.12957   0.33264   0.95587   1.000
    N266    N    0.87003   0.66749   0.20625   1.000
    O267    O    0.87043   0.66734   0.04387   1.000
    O268    O    0.86868   0.66883   0.36873   1.000
    N269    N    0.38138   0.33201   0.29753   1.000
    O270    O    0.33301   0.33029   0.29743   1.000
    O271    O    0.42986   0.33308   0.29744   1.000
    N272    N    0.87102   0.91924   0.71122   1.000
    O273    O    0.87374   0.96742   0.71267   1.000
    O274    O    0.86715   0.87126   0.70964   1.000
    N275    N    0.13154   0.83225   0.79391   1.000
    O276    O    0.13082   0.83239   0.95643   1.000
    O277    O    0.13256   0.83103   0.63156   1.000
    N278    N    0.62896   0.58053   0.28904   1.000
    O279    O    0.63323   0.62842   0.29062   1.000
    O280    O    0.62587   0.53243   0.28757   1.000
    N281    N    0.63001   0.33241   0.79388   1.000
    O282    O    0.63139   0.33117   0.63154   1.000
    O283    O    0.62954   0.33247   0.95642   1.000
    N284    N    0.36854   0.16797   0.20626   1.000
    O285    O    0.36934   0.16768   0.04387   1.000
    O286    O    0.36714   0.16926   0.36873   1.000
    N287    N    0.87149   0.41926   0.71109   1.000
    O288    O    0.87445   0.46739   0.71261   1.000
    O289    O    0.86741   0.37132   0.70951   1.000
    N290    N    0.62875   0.08056   0.28936   1.000
    O291    O    0.62604   0.03238   0.28785   1.000
    O292    O    0.63256   0.12855   0.29090   1.000
    N293    N    0.88142   0.33155   0.29690   1.000
    O294    O    0.83307   0.32972   0.29706   1.000
    O295    O    0.92989   0.33273   0.29655   1.000
    N296    N    0.61863   0.66798   0.70244   1.000
    O297    O    0.66700   0.66969   0.70255   1.000
    O298    O    0.57016   0.66692   0.70252   1.000
    N299    N    0.11861   0.66813   0.70302   1.000
    O300    O    0.16699   0.66982   0.70289   1.000
    O301    O    0.07012   0.66706   0.70335   1.000
    N302    N    0.12851   0.58073   0.28888   1.000
    O303    O    0.12554   0.53260   0.28736   1.000
    O304    O    0.13258   0.62866   0.29046   1.000
    N305    N    0.37000   0.66756   0.20578   1.000
    O306    O    0.37047   0.66747   0.04339   1.000
    O307    O    0.36861   0.66878   0.36828   1.000
    N308    N    0.11754   0.16858   0.70305   1.000
    O309    O    0.16591   0.17027   0.70339   1.000
    O310    O    0.06912   0.16737   0.70283   1.000
    N311    N    0.38232   0.83132   0.29782   1.000
    O312    O    0.33390   0.82960   0.29776   1.000
    O313    O    0.43086   0.83232   0.29752   1.000
    N314    N    0.63145   0.83201   0.79332   1.000
    O315    O    0.63065   0.83228   0.95591   1.000
    O316    O    0.63284   0.83070   0.63105   1.000
    N317    N    0.12897   0.08075   0.28876   1.000
    O318    O    0.13283   0.12874   0.29034   1.000
    O319    O    0.12625   0.03257   0.28732   1.000
loop_
    _geom_bond_atom_site_label_1
    _geom_bond_atom_site_label_2
    _geom_bond_distance
    _geom_bond_site_symmetry_2
    _ccdc_geom_bond_type
    Zr8    O112      1.03135      .   S
    Zr92   O112      1.03135      .   S
    Zr8    O113      1.03873      .   S
    Zr80   O113      1.03873      .   S
    Zr8    O114      1.03646      .   S
    Zr108  O114      1.03646      .   S
    Zr8    O115      1.04450      .   S
    Zr96   O115      1.04450      .   S
    Zr11   O116      1.03016      .   S
    Zr95   O116      1.03016      .   S
    Zr11   O117      1.03937      .   S
    Zr83   O117      1.03937      .   S
    Zr11   O118      1.05108      .   S
    Zr99   O118      1.05108      .   S
    Zr11   O119      1.03468      .   S
    Zr111  O119      1.03468      .   S
    Zr10   O120      1.03156      .   S
    Zr94   O120      1.03156      .   S
    Zr10   O121      1.04072      .   S
    Zr82   O121      1.04072      .   S
    Zr10   O122      1.04419      .   S
    Zr98   O122      1.04419      .   S
    Zr10   O123      1.03595      .   S
    Zr110  O123      1.03595      .   S
    Zr9    O124      1.03264      .   S
    Zr93   O124      1.03264      .   S
    Zr9    O125      1.04447      .   S
    Zr81   O125      1.04447      .   S
    Zr9    O126      1.04514      .   S
    Zr97   O126      1.04514      .   S
    Zr9    O127      1.03020      .   S
    Zr109  O127      1.03020      .   S
    Zr92   O128      0.63812      .   S
    Zr36   O128      0.63812      .   S
    Zr94   O129      0.63846      .   S
    Zr38   O129      0.63846      .   S
    Zr93   O130      0.63818      .   S
    Zr37   O130      0.63818      .   S
    Zr95   O131      0.63838      .   S
    Zr39   O131      0.63838      .   S
    Zr80   O132      0.63840      .   S
    Zr32   O132      0.63840      .   S
    Zr81   O133      0.63815      .   S
    Zr33   O133      0.63815      .   S
    Zr83   O134      0.63849      .   S
    Zr35   O134      0.63849      .   S
    Zr82   O135      0.63823      .   S
    Zr34   O135      0.63823      .   S
    Zr99   O136      0.63816      .   S
    Zr43   O136      0.63816      .   S
    Zr108  O137      0.63634      .   S
    Zr44   O137      0.63634      .   S
    Zr111  O138      0.63652      .   S
    Zr47   O138      0.63652      .   S
    Zr96   O139      0.63850      .   S
    Zr40   O139      0.63850      .   S
    Zr98   O140      0.63861      .   S
    Zr42   O140      0.63861      .   S
    Zr97   O141      0.63848      .   S
    Zr41   O141      0.63848      .   S
    Zr110  O142      0.63660      .   S
    Zr46   O142      0.63660      .   S
    Zr109  O143      0.63688      .   S
    Zr45   O143      0.63688      .   S
    Zr36   O144      0.63037      .   S
    Zr88   O144      0.63037      .   S
    Zr37   O145      0.63581      .   S
    Zr89   O145      0.63581      .   S
    Zr38   O146      0.63580      .   S
    Zr90   O146      0.63580      .   S
    Zr39   O147      0.63571      .   S
    Zr91   O147      0.63571      .   S
    Zr32   O148      0.63725      .   S
    Zr84   O148      0.63725      .   S
    Zr33   O149      0.63746      .   S
    Zr85   O149      0.63746      .   S
    Zr35   O150      0.63718      .   S
    Zr87   O150      0.63718      .   S
    Zr34   O151      0.63735      .   S
    Zr86   O151      0.63735      .   S
    Zr44   O152      0.63731      .   S
    Zr104  O152      0.63731      .   S
    Zr43   O153      0.63676      .   S
    Zr103  O153      0.63676      .   S
    Zr47   O154      0.63763      .   S
    Zr107  O154      0.63763      .   S
    Zr46   O155      0.63795      .   S
    Zr106  O155      0.63795      .   S
    Zr40   O156      0.63668      .   S
    Zr100  O156      0.63668      .   S
    Zr42   O157      0.63667      .   S
    Zr102  O157      0.63667      .   S
    Zr45   O158      0.63721      .   S
    Zr105  O158      0.63721      .   S
    Zr41   O159      0.63681      .   S
    Zr101  O159      0.63681      .   S
    Zr88   O160      1.04033      .   S
    Zr12   O160      1.04033      .   S
    Zr89   O161      1.03821      .   S
    Zr13   O161      1.03821      .   S
    Zr90   O162      1.03880      .   S
    Zr14   O162      1.03880      .   S
    Zr91   O163      1.04004      .   S
    Zr15   O163      1.04004      .   S
    Zr85   O164      1.04991      .   S
    Zr13   O164      1.04991      .   S
    Zr84   O165      1.05220      .   S
    Zr12   O165      1.05220      .   S
    Zr87   O166      1.05690      .   S
    Zr15   O166      1.05690      .   S
    Zr86   O167      1.05200      .   S
    Zr14   O167      1.05200      .   S
    Zr104  O168      1.03174      .   S
    Zr12   O168      1.03174      .   S
    Zr103  O169      1.02767      .   S
    Zr15   O169      1.02767      .   S
    Zr107  O170      1.03221      .   S
    Zr15   O170      1.03221      .   S
    Zr100  O171      1.03230      .   S
    Zr12   O171      1.03230      .   S
    Zr101  O172      1.03467      .   S
    Zr13   O172      1.03467      .   S
    Zr102  O173      1.03299      .   S
    Zr14   O173      1.03299      .   S
    Zr106  O174      1.03222      .   S
    Zr14   O174      1.03222      .   S
    Zr105  O175      1.03118      .   S
    Zr13   O175      1.03118      .   S
    Zr6    O176      1.03115      .   S
    Zr74   O176      1.03115      .   S
    Zr6    O177      1.03471      .   S
    Zr70   O177      1.03471      .   S
    Zr6    O178      1.04989      .   S
    Zr54   O178      1.04989      .   S
    Zr6    O179      1.03818      .   S
    Zr58   O179      1.03818      .   S
    Zr5    O180      1.03246      .   S
    Zr73   O180      1.03246      .   S
    Zr5    O181      1.03307      .   S
    Zr69   O181      1.03307      .   S
    Zr5    O182      1.05138      .   S
    Zr53   O182      1.05138      .   S
    Zr5    O183      1.03864      .   S
    Zr57   O183      1.03864      .   S
    Zr7    O184      1.03222      .   S
    Zr71   O184      1.03222      .   S
    Zr7    O185      1.03158      .   S
    Zr75   O185      1.03158      .   S
    Zr7    O186      1.05228      .   S
    Zr55   O186      1.05228      .   S
    Zr7    O187      1.03929      .   S
    Zr59   O187      1.03929      .   S
    Zr4    O188      1.03256      .   S
    Zr72   O188      1.03256      .   S
    Zr4    O189      1.02718      .   S
    Zr68   O189      1.02718      .   S
    Zr4    O190      1.05683      .   S
    Zr52   O190      1.05683      .   S
    Zr4    O191      1.04057      .   S
    Zr56   O191      1.04057      .   S
    Zr74   O192      0.63720      .   S
    Zr30   O192      0.63720      .   S
    Zr73   O193      0.63751      .   S
    Zr29   O193      0.63751      .   S
    Zr69   O194      0.63670      .   S
    Zr25   O194      0.63670      .   S
    Zr70   O195      0.63678      .   S
    Zr26   O195      0.63678      .   S
    Zr71   O196      0.63667      .   S
    Zr27   O196      0.63667      .   S
    Zr72   O197      0.63759      .   S
    Zr28   O197      0.63759      .   S
    Zr75   O198      0.63744      .   S
    Zr31   O198      0.63744      .   S
    Zr68   O199      0.63677      .   S
    Zr24   O199      0.63677      .   S
    Zr53   O200      0.63730      .   S
    Zr17   O200      0.63730      .   S
    Zr52   O201      0.63716      .   S
    Zr16   O201      0.63716      .   S
    Zr55   O202      0.63724      .   S
    Zr19   O202      0.63724      .   S
    Zr54   O203      0.63746      .   S
    Zr18   O203      0.63746      .   S
    Zr56   O204      0.63562      .   S
    Zr20   O204      0.63562      .   S
    Zr57   O205      0.63584      .   S
    Zr21   O205      0.63584      .   S
    Zr58   O206      0.63581      .   S
    Zr22   O206      0.63581      .   S
    Zr59   O207      0.63528      .   S
    Zr23   O207      0.63528      .   S
    Zr30   O208      0.63686      .   S
    Zr78   O208      0.63686      .   S
    Zr26   O209      0.63852      .   S
    Zr66   O209      0.63852      .   S
    Zr29   O210      0.63659      .   S
    Zr77   O210      0.63659      .   S
    Zr25   O211      0.63852      .   S
    Zr65   O211      0.63852      .   S
    Zr27   O212      0.63851      .   S
    Zr67   O212      0.63851      .   S
    Zr28   O213      0.63648      .   S
    Zr76   O213      0.63648      .   S
    Zr31   O214      0.63631      .   S
    Zr79   O214      0.63631      .   S
    Zr24   O215      0.63821      .   S
    Zr64   O215      0.63821      .   S
    Zr17   O216      0.63834      .   S
    Zr49   O216      0.63834      .   S
    Zr16   O217      0.63850      .   S
    Zr48   O217      0.63850      .   S
    Zr18   O218      0.63821      .   S
    Zr50   O218      0.63821      .   S
    Zr19   O219      0.63834      .   S
    Zr51   O219      0.63834      .   S
    Zr20   O220      0.63848      .   S
    Zr60   O220      0.63848      .   S
    Zr21   O221      0.63818      .   S
    Zr61   O221      0.63818      .   S
    Zr22   O222      0.63817      .   S
    Zr62   O222      0.63817      .   S
    Zr23   O223      0.63866      .   S
    Zr63   O223      0.63866      .   S
    Zr78   O224      1.03017      .   S
    Zr2    O224      1.03017      .   S
    Zr77   O225      1.03595      .   S
    Zr1    O225      1.03595      .   S
    Zr66   O226      1.04530      .   S
    Zr2    O226      1.04530      .   S
    Zr65   O227      1.04362      .   S
    Zr1    O227      1.04362      .   S
    Zr67   O228      1.04437      .   S
    Zr3    O228      1.04437      .   S
    Zr76   O229      1.03454      .   S
    Zr0    O229      1.03454      .   S
    Zr79   O230      1.03633      .   S
    Zr3    O230      1.03633      .   S
    Zr64   O231      1.05123      .   S
    Zr0    O231      1.05123      .   S
    Zr49   O232      1.04018      .   S
    Zr1    O232      1.04018      .   S
    Zr48   O233      1.03911      .   S
    Zr0    O233      1.03911      .   S
    Zr50   O234      1.04446      .   S
    Zr2    O234      1.04446      .   S
    Zr51   O235      1.03876      .   S
    Zr3    O235      1.03876      .   S
    Zr60   O236      1.03030      .   S
    Zr0    O236      1.03030      .   S
    Zr62   O237      1.03263      .   S
    Zr2    O237      1.03263      .   S
    Zr61   O238      1.03176      .   S
    Zr1    O238      1.03176      .   S
    Zr63   O239      1.03144      .   S
    Zr3    O239      1.03144      .   S
    Zr0    O240      1.43061      .   S
    Zr4    O240      1.43061      .   S
    Zr1    O241      1.42989      .   S
    Zr5    O241      1.42989      .   S
    Zr2    O242      1.43066      .   S
    Zr6    O242      1.43066      .   S
    Zr3    O243      1.43081      .   S
    Zr7    O243      1.43081      .   S
    Zr8    O244      1.43081      .   S
    Zr12   O244      1.43081      .   S
    Zr9    O245      1.43052      .   S
    Zr13   O245      1.43052      .   S
    Zr10   O246      1.43046      .   S
    Zr14   O246      1.43046      .   S
    Zr11   O247      1.43060      .   S
    Zr15   O247      1.43060      .   S
    N248   O249      1.07818      .   S
    Zr21   O249      1.83148      .   S
    N248   O250      1.08024      .   S
    Zr16   O250      1.83258      .   S
    N251   O252      2.28416      .   S
    Zr2    O252      3.31768  1_556   S
    N251   O253      2.28768      .   S
    Zr6    O253      3.32046      .   S
    N254   O255      1.07650      .   S
    Zr43   O255      1.82616      .   S
    N254   O256      1.07584      .   S
    Zr45   O256      1.82565  1_455   S
    N257   O258      1.07858      .   S
    Zr20   O258      1.83086  1_545   S
    N257   O259      1.08026      .   S
    Zr17   O259      1.83249      .   S
    N260   O261      1.07801      .   S
    Zr26   O261      1.82865      .   S
    N260   O262      1.07739      .   S
    Zr28   O262      1.82815      .   S
    N263   O264      2.28430      .   S
    Zr12   O264      3.31547      .   S
    N263   O265      2.28772      .   S
    Zr8    O265      3.32266  1_554   S
    N266   O267      2.28451      .   S
    Zr3    O267      3.31945  1_556   S
    N266   O268      2.28751      .   S
    Zr7    O268      3.31868      .   S
    N269   O270      1.07666      .   S
    Zr40   O270      1.82636      .   S
    N269   O271      1.07631      .   S
    Zr46   O271      1.82649      .   S
    N272   O273      1.07860      .   S
    Zr22   O273      1.83091  1_545   S
    N272   O274      1.08012      .   S
    Zr19   O274      1.83225      .   S
    N275   O276      2.28678      .   S
    Zr9    O276      3.32033  1_554   S
    N275   O277      2.28527      .   S
    Zr13   O277      3.31784      .   S
    N278   O279      1.08033      .   S
    Zr35   O279      1.83269      .   S
    N278   O280      1.07856      .   S
    Zr38   O280      1.83072      .   S
    N281   O282      2.28536      .   S
    Zr14   O282      3.31817      .   S
    N281   O283      2.28678      .   S
    Zr10   O283      3.32042  1_554   S
    N284   O285      2.28499      .   S
    Zr0    O285      3.32005  1_556   S
    N284   O286      2.28731      .   S
    Zr4    O286      3.31871      .   S
    N287   O288      1.07861      .   S
    Zr23   O288      1.83083      .   S
    N287   O289      1.08026      .   S
    Zr18   O289      1.83252      .   S
    N290   O291      1.07834      .   S
    Zr39   O291      1.83047  1_565   S
    N290   O292      1.08008      .   S
    Zr34   O292      1.83224      .   S
    N293   O294      1.07688      .   S
    Zr42   O294      1.82667      .   S
    N293   O295      1.07658      .   S
    Zr44   O295      1.82699  1_455   S
    N296   O297      1.07661      .   S
    Zr27   O297      1.82628      .   S
    N296   O298      1.07626      .   S
    Zr29   O298      1.82642      .   S
    N299   O300      1.07681      .   S
    Zr25   O300      1.82659      .   S
    N299   O301      1.07652      .   S
    Zr31   O301      1.82687  1_655   S
    N302   O303      1.07859      .   S
    Zr36   O303      1.83083      .   S
    N302   O304      1.08023      .   S
    Zr33   O304      1.83248      .   S
    N305   O306      2.28468      .   S
    Zr1    O306      3.31905  1_556   S
    N305   O307      2.28764      .   S
    Zr5    O307      3.32050      .   S
    N308   O309      1.07644      .   S
    Zr24   O309      1.82606      .   S
    N308   O310      1.07580      .   S
    Zr30   O310      1.82560  1_655   S
    N311   O312      1.07798      .   S
    Zr41   O312      1.82859      .   S
    N311   O313      1.07736      .   S
    Zr47   O313      1.82811      .   S
    N314   O315      2.28784      .   S
    Zr11   O315      3.32290  1_554   S
    N314   O316      2.28448      .   S
    Zr15   O316      3.31581      .   S
    N317   O318      1.08013      .   S
    Zr32   O318      1.83229      .   S
    N317   O319      1.07862      .   S
    Zr37   O319      1.83094  1_565   S
