# CIF file generated by openbabel 2.4.90, see http://openbabel.sf.net
data_I
_chemical_name_common ''
_cell_length_a 13.59
_cell_length_b 13.596
_cell_length_c 13.604
_cell_angle_alpha 87.248
_cell_angle_beta 87.32
_cell_angle_gamma 87.467
_space_group_name_H-M_alt 'P 1'
_space_group_name_Hall 'P 1'
loop_
    _symmetry_equiv_pos_as_xyz
    x,y,z
loop_
    _atom_site_label
    _atom_site_type_symbol
    _atom_site_fract_x
    _atom_site_fract_y
    _atom_site_fract_z
    _atom_site_occupancy
    N0      N    0.50134   0.00132   0.50005   1.000
    N1      N    0.49868   0.50134   0.00011   1.000
    N2      N    0.99985   0.50150   0.50017   1.000
    Zr3     Zr   0.50003   0.00173   0.99982   1.000
    O4      O    0.48506   0.99748   0.85244   1.000
    O5      O    0.47537   0.99633   0.13790   1.000
    O6      O    0.48414   0.85411   0.99633   1.000
    O7      O    0.47458   0.13950   0.99425   1.000
    O8      O    0.52470   0.86370   0.00533   1.000
    O9      O    0.51497   0.14916   0.00378   1.000
    O10     O    0.51593   0.00548   0.14731   1.000
    O11     O    0.52544   0.00718   0.86190   1.000
    Zr12    Zr   0.00151   0.00148   0.50007   1.000
    O13     O    0.00653   0.86353   0.52514   1.000
    O14     O    0.86353   0.00688   0.52513   1.000
    O15     O    0.14897   0.00530   0.51544   1.000
    O16     O    0.00497   0.14896   0.51543   1.000
    O17     O    0.99535   0.13946   0.47509   1.000
    O18     O    0.85400   0.99729   0.48479   1.000
    O19     O    0.13939   0.99620   0.47498   1.000
    O20     O    0.99741   0.85400   0.48467   1.000
    Zr21    Zr   0.99849   0.50100   0.00023   1.000
    O22     O    0.86066   0.52620   0.00557   1.000
    O23     O    0.00259   0.51665   0.14769   1.000
    O24     O    0.14603   0.51636   0.00417   1.000
    O25     O    0.00456   0.52615   0.86223   1.000
    O26     O    0.85100   0.48573   0.99642   1.000
    O27     O    0.13643   0.47597   0.99463   1.000
    O28     O    0.99338   0.47613   0.13822   1.000
    O29     O    0.99489   0.48577   0.85276   1.000
loop_
    _geom_bond_atom_site_label_1
    _geom_bond_atom_site_label_2
    _geom_bond_distance
    _geom_bond_site_symmetry_2
    _ccdc_geom_bond_type
    Zr3    O4        2.02847  1_545   S
    N0     O4        4.78659  1_545   S
    Zr3    O5        1.89116  1_546   S
    N0     O5        4.95962  1_545   S
    Zr3    O6        2.03113  1_545   S
    N1     O6        4.78957  1_554   S
    Zr3    O7        1.88820      .   S
    N1     O7        4.94955  1_554   S
    Zr3    O8        1.89025  1_546   S
    N1     O8        4.95910      .   S
    Zr3    O9        2.02705  1_556   S
    N1     O9        4.78156      .   S
    Zr3    O10       2.03140  1_556   S
    N0     O10       4.79121      .   S
    Zr3    O11       1.89025      .   S
    N0     O11       4.95352      .   S
    Zr12   O13       1.88897  1_545   S
    N2     O13       4.95525  1_655   S
    Zr12   O14       1.88895  1_455   S
    N0     O14       4.95405      .   S
    Zr12   O15       2.02779      .   S
    N0     O15       4.78148      .   S
    Zr12   O16       2.02880      .   S
    N2     O16       4.78519  1_655   S
    Zr12   O17       1.88924  1_455   S
    N2     O17       4.95367      .   S
    Zr12   O18       2.02862  1_445   S
    N0     O18       4.78543  1_545   S
    Zr12   O19       1.88771  1_545   S
    N0     O19       4.95033  1_545   S
    Zr12   O20       2.02946  1_445   S
    N2     O20       4.78587      .   S
    Zr21   O22       1.88782      .   S
    N1     O22       4.95007      .   S
    Zr21   O23       2.03098  1_655   S
    N2     O23       4.78818  1_655   S
    Zr21   O24       2.02854  1_655   S
    N1     O24       4.78574      .   S
    Zr21   O25       1.89068  1_654   S
    N2     O25       4.95644  1_655   S
    Zr21   O26       2.02754  1_554   S
    N1     O26       4.78130  1_554   S
    Zr21   O27       1.88905  1_654   S
    N1     O27       4.95457  1_554   S
    Zr21   O28       1.88998      .   S
    N2     O28       4.95765      .   S
    Zr21   O29       2.02980  1_554   S
    N2     O29       4.78858      .   S
