# CIF file generated by openbabel 2.4.90, see http://openbabel.sf.net
data_I
_chemical_name_common ''
_cell_length_a 8.919
_cell_length_b 10.1035
_cell_length_c 15.051
_cell_angle_alpha 90.021
_cell_angle_beta 90.193
_cell_angle_gamma 90.165
_space_group_name_H-M_alt 'P 1'
_space_group_name_Hall 'P 1'
loop_
    _symmetry_equiv_pos_as_xyz
    x,y,z
loop_
    _atom_site_label
    _atom_site_type_symbol
    _atom_site_fract_x
    _atom_site_fract_y
    _atom_site_fract_z
    _atom_site_occupancy
    Zr0     Zr   0.68230   0.05949   0.39126   1.000
    Zr1     Zr   0.31543   0.44010   0.89161   1.000
    Zr2     Zr   0.18045   0.94002   0.10971   1.000
    Zr3     Zr   0.81461   0.55997   0.61118   1.000
    N4      N    0.77506   0.26708   0.30234   1.000
    O5      O    0.74880   0.20845   0.36655   1.000
    O6      O    0.80040   0.38633   0.42505   1.000
    O7      O    0.67587   0.19277   0.34064   1.000
    O8      O    0.95810   0.13640   0.23249   1.000
    O9      O    0.78698   0.15782   0.33517   1.000
    O10     O    0.74034   0.21360   0.32038   1.000
    N11     N    0.22153   0.23321   0.80209   1.000
    O12     O    0.25651   0.28662   0.82019   1.000
    O13     O    0.24863   0.29121   0.86643   1.000
    O14     O    0.19597   0.11347   0.92403   1.000
    O15     O    0.32102   0.30720   0.84061   1.000
    O16     O    0.03742   0.36382   0.73326   1.000
    O17     O    0.20994   0.34211   0.83547   1.000
    N18     N    0.27270   0.73300   0.19906   1.000
    O19     O    0.23808   0.78638   0.18093   1.000
    O20     O    0.24692   0.79134   0.13483   1.000
    O21     O    0.29950   0.61375   0.07708   1.000
    O22     O    0.17370   0.80695   0.16042   1.000
    O23     O    0.45744   0.86349   0.26865   1.000
    O24     O    0.28500   0.84206   0.16601   1.000
    N25     N    0.72295   0.76716   0.70037   1.000
    O26     O    0.75736   0.71375   0.68230   1.000
    O27     O    0.74919   0.70885   0.63612   1.000
    O28     O    0.69770   0.88644   0.57772   1.000
    O29     O    0.82163   0.69294   0.66214   1.000
    O30     O    0.53875   0.63640   0.76941   1.000
    O31     O    0.71026   0.65822   0.66705   1.000
loop_
    _geom_bond_atom_site_label_1
    _geom_bond_atom_site_label_2
    _geom_bond_distance
    _geom_bond_site_symmetry_2
    _ccdc_geom_bond_type
    N4     O5        1.15796      .   S
    Zr0    O5        1.65891      .   S
    N4     O6        2.21531      .   S
    Zr3    O6        3.30681      .   S
    N4     O7        1.29556      .   S
    Zr0    O7        1.54856      .   S
    N4     O8        2.35304      .   S
    Zr2    O8        3.36590  1_465   S
    N4     O9        1.21440      .   S
    Zr0    O9        1.60374      .   S
    N4     O10       0.67911      .   S
    Zr0    O10       1.95730      .   S
    N11    O12       0.67908      .   S
    Zr1    O12       1.95617      .   S
    N11    O13       1.15625      .   S
    Zr1    O13       1.65968      .   S
    N11    O14       2.21062      .   S
    Zr2    O14       3.30241  1_564   S
    N11    O15       1.29411      .   S
    Zr1    O15       1.54753      .   S
    N11    O16       2.34799      .   S
    Zr3    O16       3.35467  1_655   S
    N11    O17       1.21427      .   S
    Zr1    O17       1.60251      .   S
    N18    O19       0.67906      .   S
    Zr2    O19       1.95571      .   S
    N18    O20       1.15528      .   S
    Zr2    O20       1.65972      .   S
    N18    O21       2.20964      .   S
    Zr1    O21       3.30020  1_556   S
    N18    O22       1.29494      .   S
    Zr2    O22       1.54726      .   S
    N18    O23       2.35048      .   S
    Zr0    O23       3.36137  1_545   S
    N18    O24       1.21393      .   S
    Zr2    O24       1.60237      .   S
    N25    O26       0.67878      .   S
    Zr3    O26       1.95643      .   S
    N25    O27       1.15711      .   S
    Zr3    O27       1.65835      .   S
    N25    O28       2.21615      .   S
    Zr0    O28       3.30966  1_545   S
    N25    O29       1.29424      .   S
    Zr3    O29       1.54773      .   S
    N25    O30       2.35040      .   S
    Zr1    O30       3.35974      .   S
    N25    O31       1.21423      .   S
    Zr3    O31       1.60268      .   S
