# CIF file generated by openbabel 2.4.90, see http://openbabel.sf.net
data_I
_chemical_name_common ''
_cell_length_a 12.889
_cell_length_b 14.509
_cell_length_c 14.526
_cell_angle_alpha 78.448
_cell_angle_beta 63.448
_cell_angle_gamma 63.512
_space_group_name_H-M_alt 'P 1'
_space_group_name_Hall 'P 1'
loop_
    _symmetry_equiv_pos_as_xyz
    x,y,z
loop_
    _atom_site_label
    _atom_site_type_symbol
    _atom_site_fract_x
    _atom_site_fract_y
    _atom_site_fract_z
    _atom_site_occupancy
    N0      N    0.65074   0.35205   0.90585   1.000
    N1      N    0.91028   0.64891   0.09077   1.000
    N2      N    0.25077   0.40733   0.14927   1.000
    N3      N    0.80820   0.59253   0.85204   1.000
    Zr4     Zr   0.15028   0.00068   0.00014   1.000
    O5      O    0.09554   0.90298   0.99805   1.000
    O6      O    0.18747   0.12159   0.01924   1.000
    O7      O    0.09533   0.89176   0.93794   1.000
    O8      O    0.01266   0.10536   0.95651   1.000
    O9      O    0.07404   0.89597   0.04269   1.000
    O10     O    0.17350   0.10913   0.06275   1.000
    O11     O    0.07755   0.87930   0.98143   1.000
    O12     O    0.99578   0.09838   0.00118   1.000
    Zr13    Zr   0.40164   0.49951   0.49868   1.000
    O14     O    0.53393   0.56209   0.38971   1.000
    O15     O    0.34417   0.50115   0.40154   1.000
    O16     O    0.22032   0.54280   0.60385   1.000
    O17     O    0.45761   0.48090   0.61963   1.000
    O18     O    0.56005   0.51856   0.37737   1.000
    O19     O    0.36774   0.45646   0.39468   1.000
    O20     O    0.49852   0.49812   0.59698   1.000
    O21     O    0.48758   0.43737   0.60730   1.000
loop_
    _geom_bond_atom_site_label_1
    _geom_bond_atom_site_label_2
    _geom_bond_distance
    _geom_bond_site_symmetry_2
    _ccdc_geom_bond_type
    Zr4    O5        1.85397  1_544   S
    N1     O5        4.90833  1_654   S
    Zr4    O6        2.10894      .   S
    N2     O6        5.38079      .   S
    Zr4    O7        2.44088  1_544   S
    N3     O7        7.39810  1_655   S
    Zr4    O8        2.01763  1_554   S
    N0     O8        4.71528  1_655   S
    Zr4    O9        2.01707  1_545   S
    N1     O9        4.71386  1_655   S
    Zr4    O10       2.15156      .   S
    N2     O10       5.33204      .   S
    Zr4    O11       2.43857  1_544   S
    N3     O11       7.39906  1_655   S
    Zr4    O12       1.85444  1_455   S
    N0     O12       4.90969  1_556   S
    Zr13   O14       2.15168      .   S
    N1     O14       5.32927      .   S
    Zr13   O15       1.85621      .   S
    N2     O15       4.91260      .   S
    Zr13   O16       2.01819      .   S
    N3     O16       4.71547  1_655   S
    Zr13   O17       2.10949      .   S
    N0     O17       5.38192      .   S
    Zr13   O18       2.10763      .   S
    N1     O18       5.38016      .   S
    Zr13   O19       2.01848      .   S
    N2     O19       4.71923      .   S
    Zr13   O20       2.27135      .   S
    N3     O20       7.18795      .   S
    Zr13   O21       2.15212      .   S
    N0     O21       5.33317      .   S
