# CIF file generated by openbabel 2.4.90, see http://openbabel.sf.net
data_I
_chemical_name_common ''
_cell_length_a 18.488
_cell_length_b 18.475
_cell_length_c 18.451
_cell_angle_alpha 59.888
_cell_angle_beta 59.923
_cell_angle_gamma 59.966
_space_group_name_H-M_alt 'P 1'
_space_group_name_Hall 'P 1'
loop_
    _symmetry_equiv_pos_as_xyz
    x,y,z
loop_
    _atom_site_label
    _atom_site_type_symbol
    _atom_site_fract_x
    _atom_site_fract_y
    _atom_site_fract_z
    _atom_site_occupancy
    Zr0     Zr   0.61166   0.78533   0.61131   1.000
    Zr1     Zr   0.19857   0.02437   0.19873   1.000
    Zr2     Zr   0.61148   0.61131   0.78564   1.000
    Zr3     Zr   0.19873   0.19871   0.02399   1.000
    Zr4     Zr   0.78528   0.61155   0.61141   1.000
    Zr5     Zr   0.02470   0.19853   0.19873   1.000
    Zr6     Zr   0.61174   0.61140   0.61110   1.000
    Zr7     Zr   0.19853   0.19852   0.19860   1.000
    Zr8     Zr   0.21474   0.38841   0.38856   1.000
    Zr9     Zr   0.97532   0.80143   0.80123   1.000
    Zr10    Zr   0.38854   0.38865   0.21430   1.000
    Zr11    Zr   0.80129   0.80125   0.97598   1.000
    Zr12    Zr   0.38836   0.21464   0.38866   1.000
    Zr13    Zr   0.80145   0.97559   0.80124   1.000
    Zr14    Zr   0.38828   0.38856   0.38879   1.000
    Zr15    Zr   0.80149   0.80144   0.80135   1.000
    Zr16    Zr   0.29389   0.01611   0.29430   1.000
    Zr17    Zr   0.51624   0.79450   0.51567   1.000
    Zr18    Zr   0.29405   0.29416   0.01587   1.000
    Zr19    Zr   0.51613   0.51582   0.79455   1.000
    Zr20    Zr   0.01639   0.29390   0.29426   1.000
    Zr21    Zr   0.79472   0.51601   0.51575   1.000
    Zr22    Zr   0.01606   0.01598   0.29582   1.000
    Zr23    Zr   0.79416   0.79417   0.51702   1.000
    Zr24    Zr   0.29567   0.01609   0.01581   1.000
    Zr25    Zr   0.51727   0.79393   0.79426   1.000
    Zr26    Zr   0.01619   0.29560   0.01587   1.000
    Zr27    Zr   0.79395   0.51720   0.79437   1.000
    Zr28    Zr   0.98363   0.70605   0.70571   1.000
    Zr29    Zr   0.20530   0.48395   0.48422   1.000
    Zr30    Zr   0.70598   0.70580   0.98410   1.000
    Zr31    Zr   0.48390   0.48414   0.20541   1.000
    Zr32    Zr   0.70613   0.98386   0.70567   1.000
    Zr33    Zr   0.48378   0.20546   0.48429   1.000
    Zr34    Zr   0.98397   0.98398   0.70415   1.000
    Zr35    Zr   0.20586   0.20579   0.48295   1.000
    Zr36    Zr   0.98383   0.70436   0.98410   1.000
    Zr37    Zr   0.20607   0.48275   0.20559   1.000
    Zr38    Zr   0.70436   0.98388   0.98416   1.000
    Zr39    Zr   0.48276   0.20603   0.20571   1.000
    Zr40    Zr   0.71030   0.83359   0.53891   1.000
    Zr41    Zr   0.97654   0.09981   0.27337   1.000
    Zr42    Zr   0.53905   0.70998   0.83380   1.000
    Zr43    Zr   0.27297   0.97645   0.09981   1.000
    Zr44    Zr   0.83333   0.53918   0.71027   1.000
    Zr45    Zr   0.09993   0.27296   0.97601   1.000
    Zr46    Zr   0.83353   0.71023   0.53886   1.000
    Zr47    Zr   0.09980   0.97632   0.27320   1.000
    Zr48    Zr   0.71008   0.53902   0.83395   1.000
    Zr49    Zr   0.97670   0.27313   0.09987   1.000
    Zr50    Zr   0.53932   0.83338   0.71010   1.000
    Zr51    Zr   0.27324   0.09993   0.97596   1.000
    Zr52    Zr   0.53821   0.83411   0.53786   1.000
    Zr53    Zr   0.53865   0.71064   0.53761   1.000
    Zr54    Zr   0.27187   0.09989   0.27218   1.000
    Zr55    Zr   0.27180   0.97644   0.27236   1.000
    Zr56    Zr   0.53804   0.53787   0.83434   1.000
    Zr57    Zr   0.53853   0.53794   0.71050   1.000
    Zr58    Zr   0.27196   0.27199   0.09981   1.000
    Zr59    Zr   0.27204   0.27228   0.97606   1.000
    Zr60    Zr   0.83420   0.53809   0.53795   1.000
    Zr61    Zr   0.71096   0.53824   0.53774   1.000
    Zr62    Zr   0.10009   0.27197   0.27209   1.000
    Zr63    Zr   0.97683   0.27171   0.27230   1.000
    Zr64    Zr   0.65494   0.65483   0.65490   1.000
    Zr65    Zr   0.15521   0.15504   0.15491   1.000
    Zr66    Zr   0.16649   0.28973   0.46111   1.000
    Zr67    Zr   0.90022   0.02364   0.72670   1.000
    Zr68    Zr   0.28994   0.46094   0.16602   1.000
    Zr69    Zr   0.02332   0.72683   0.90000   1.000
    Zr70    Zr   0.46070   0.16658   0.28982   1.000
    Zr71    Zr   0.72679   0.90003   0.02400   1.000
    Zr72    Zr   0.28973   0.16637   0.46106   1.000
    Zr73    Zr   0.02349   0.90014   0.72659   1.000
    Zr74    Zr   0.46097   0.28999   0.16610   1.000
    Zr75    Zr   0.72705   0.02351   0.90015   1.000
    Zr76    Zr   0.16669   0.46078   0.28970   1.000
    Zr77    Zr   0.90010   0.72699   0.02390   1.000
    Zr78    Zr   0.16582   0.46187   0.46202   1.000
    Zr79    Zr   0.28907   0.46173   0.46222   1.000
    Zr80    Zr   0.89993   0.72800   0.72787   1.000
    Zr81    Zr   0.02320   0.72825   0.72761   1.000
    Zr82    Zr   0.46198   0.46209   0.16562   1.000
    Zr83    Zr   0.46151   0.46200   0.28944   1.000
    Zr84    Zr   0.72806   0.72799   0.90015   1.000
    Zr85    Zr   0.72798   0.72769   0.02391   1.000
    Zr86    Zr   0.46182   0.16585   0.46210   1.000
    Zr87    Zr   0.46137   0.28932   0.46236   1.000
    Zr88    Zr   0.72815   0.90007   0.72779   1.000
    Zr89    Zr   0.72823   0.02352   0.72760   1.000
    Zr90    Zr   0.34508   0.34513   0.34506   1.000
    Zr91    Zr   0.84482   0.84492   0.84506   1.000
    O92     O    0.28432   0.99627   0.05781   1.000
    O93     O    0.28445   0.05801   0.99588   1.000
    O94     O    0.28300   0.28307   0.05784   1.000
    O95     O    0.28304   0.28322   0.99596   1.000
    O96     O    0.99645   0.28436   0.05787   1.000
    O97     O    0.05806   0.28428   0.99594   1.000
    O98     O    0.85069   0.76412   0.99994   1.000
    O99     O    0.94197   0.71568   0.00400   1.000
    O100    O    0.76464   0.76447   0.99994   1.000
    O101    O    0.71698   0.71674   0.00400   1.000
    O102    O    0.23599   0.14932   0.99997   1.000
    O103    O    0.14933   0.23584   0.00000   1.000
    O104    O    0.23538   0.23549   0.00002   1.000
    O105    O    0.76404   0.85064   0.99999   1.000
    O106    O    0.71557   0.94196   0.00408   1.000
    O107    O    0.23577   0.00041   0.14927   1.000
    O108    O    0.23524   0.23525   0.14920   1.000
    O109    O    0.00070   0.23583   0.14930   1.000
    O110    O    0.17687   0.17678   0.17675   1.000
    O111    O    0.08995   0.17678   0.17682   1.000
    O112    O    0.47294   0.47311   0.18551   1.000
    O113    O    0.42526   0.42537   0.18996   1.000
    O114    O    0.24800   0.47184   0.18580   1.000
    O115    O    0.33924   0.42480   0.19016   1.000
    O116    O    0.47186   0.24801   0.18590   1.000
    O117    O    0.42475   0.33932   0.19020   1.000
    O118    O    0.14931   0.23525   0.23534   1.000
    O119    O    0.23520   0.14921   0.23539   1.000
    O120    O    0.23519   0.00041   0.23554   1.000
    O121    O    0.14919   0.00034   0.23596   1.000
    O122    O    0.00076   0.23512   0.23551   1.000
    O123    O    0.00062   0.14917   0.23605   1.000
    O124    O    0.47271   0.47307   0.24742   1.000
    O125    O    0.18638   0.47177   0.24764   1.000
    O126    O    0.47173   0.18630   0.24776   1.000
    O127    O    0.05824   0.28294   0.28317   1.000
    O128    O    0.28288   0.05800   0.28324   1.000
    O129    O    0.99661   0.28281   0.28328   1.000
    O130    O    0.28285   0.99628   0.28333   1.000
    O131    O    0.05793   0.99615   0.28451   1.000
    O132    O    0.99630   0.05789   0.28459   1.000
    O133    O    0.42490   0.42528   0.33911   1.000
    O134    O    0.19071   0.42460   0.33913   1.000
    O135    O    0.42453   0.19061   0.33924   1.000
    O136    O    0.27991   0.36677   0.36681   1.000
    O137    O    0.36672   0.27988   0.36686   1.000
    O138    O    0.19062   0.33907   0.42483   1.000
    O139    O    0.19028   0.42514   0.42529   1.000
    O140    O    0.33904   0.19050   0.42486   1.000
    O141    O    0.42509   0.19024   0.42538   1.000
    O142    O    0.33868   0.42515   0.42550   1.000
    O143    O    0.42483   0.33894   0.42557   1.000
    O144    O    0.24780   0.18608   0.47200   1.000
    O145    O    0.18618   0.24776   0.47203   1.000
    O146    O    0.18556   0.47291   0.47312   1.000
    O147    O    0.47280   0.18566   0.47319   1.000
    O148    O    0.24719   0.47284   0.47322   1.000
    O149    O    0.47258   0.24739   0.47332   1.000
    O150    O    0.52744   0.75257   0.52664   1.000
    O151    O    0.52722   0.81431   0.52676   1.000
    O152    O    0.75284   0.52712   0.52675   1.000
    O153    O    0.81446   0.52705   0.52685   1.000
    O154    O    0.81385   0.75220   0.52794   1.000
    O155    O    0.75223   0.81388   0.52796   1.000
    O156    O    0.57520   0.66102   0.57435   1.000
    O157    O    0.66135   0.57482   0.57442   1.000
    O158    O    0.57493   0.80972   0.57458   1.000
    O159    O    0.80974   0.57482   0.57468   1.000
    O160    O    0.80941   0.66089   0.57513   1.000
    O161    O    0.66098   0.80946   0.57511   1.000
    O162    O    0.57514   0.57467   0.66080   1.000
    O163    O    0.63330   0.72008   0.63311   1.000
    O164    O    0.57549   0.80936   0.66070   1.000
    O165    O    0.72011   0.63319   0.63316   1.000
    O166    O    0.80931   0.57537   0.66084   1.000
    O167    O    0.00373   0.94206   0.71537   1.000
    O168    O    0.94210   0.00381   0.71542   1.000
    O169    O    0.71718   0.00369   0.71663   1.000
    O170    O    0.71714   0.94196   0.71673   1.000
    O171    O    0.00341   0.71715   0.71666   1.000
    O172    O    0.94178   0.71703   0.71679   1.000
    O173    O    0.52829   0.81366   0.75218   1.000
    O174    O    0.81364   0.52819   0.75232   1.000
    O175    O    0.52733   0.52688   0.75252   1.000
    O176    O    0.99940   0.85079   0.76391   1.000
    O177    O    0.85084   0.99962   0.76397   1.000
    O178    O    0.76484   0.99956   0.76442   1.000
    O179    O    0.99926   0.76484   0.76442   1.000
    O180    O    0.76482   0.85076   0.76457   1.000
    O181    O    0.85071   0.76472   0.76461   1.000
    O182    O    0.57527   0.66064   0.80972   1.000
    O183    O    0.66078   0.57517   0.80979   1.000
    O184    O    0.57476   0.57459   0.80999   1.000
    O185    O    0.52816   0.75195   0.81403   1.000
    O186    O    0.75202   0.52811   0.81416   1.000
    O187    O    0.52708   0.52685   0.81444   1.000
    O188    O    0.91007   0.82318   0.82314   1.000
    O189    O    0.99932   0.76413   0.85061   1.000
    O190    O    0.82313   0.91026   0.82315   1.000
    O191    O    0.76425   0.99955   0.85069   1.000
    O192    O    0.76478   0.76472   0.85075   1.000
    O193    O    0.00358   0.71560   0.94205   1.000
    O194    O    0.71702   0.71690   0.94212   1.000
    O195    O    0.71570   0.00369   0.94215   1.000
    O196    O    0.63321   0.63307   0.72027   1.000
    O197    O    0.63334   0.63312   0.63300   1.000
    O198    O    0.17689   0.08971   0.17682   1.000
    O199    O    0.17697   0.17688   0.08945   1.000
    O200    O    0.36681   0.36689   0.27968   1.000
    O201    O    0.36668   0.36685   0.36692   1.000
    O202    O    0.82305   0.82309   0.91052   1.000
    O203    O    0.82316   0.82318   0.82320   1.000
    N204    N    0.40739   0.90497   0.90501   1.000
    O205    O    0.36608   0.94618   0.94609   1.000
    O206    O    0.44820   0.86377   0.86393   1.000
    N207    N    0.40501   0.90527   0.40504   1.000
    O208    O    0.44626   0.86420   0.44607   1.000
    O209    O    0.36380   0.94634   0.36399   1.000
    N210    N    0.40506   0.40502   0.90512   1.000
    O211    O    0.44625   0.44611   0.86414   1.000
    O212    O    0.36390   0.36391   0.94616   1.000
    N213    N    0.90509   0.90506   0.40737   1.000
    O214    O    0.86394   0.86392   0.44809   1.000
    O215    O    0.94624   0.94618   0.36612   1.000
    N216    N    0.59501   0.09469   0.59493   1.000
    O217    O    0.63622   0.05362   0.63598   1.000
    O218    O    0.55376   0.13576   0.55389   1.000
    N219    N    0.90504   0.40734   0.90512   1.000
    O220    O    0.86381   0.44815   0.86404   1.000
    O221    O    0.94626   0.36601   0.94618   1.000
    N222    N    0.09494   0.09490   0.59251   1.000
    O223    O    0.05379   0.05378   0.63380   1.000
    O224    O    0.13609   0.13604   0.55183   1.000
    N225    N    0.59263   0.09499   0.09493   1.000
    O226    O    0.55182   0.13619   0.13602   1.000
    O227    O    0.63395   0.05378   0.05387   1.000
    N228    N    0.09447   0.59501   0.59494   1.000
    O229    O    0.13556   0.55382   0.55388   1.000
    O230    O    0.05338   0.63619   0.63601   1.000
    N231    N    0.59497   0.59494   0.09480   1.000
    O232    O    0.55378   0.55384   0.13580   1.000
    O233    O    0.63613   0.63604   0.05379   1.000
    N234    N    0.90556   0.40494   0.40502   1.000
    O235    O    0.94664   0.36377   0.36396   1.000
    O236    O    0.86446   0.44614   0.44609   1.000
    N237    N    0.09499   0.59262   0.09484   1.000
    O238    O    0.13621   0.55181   0.13592   1.000
    O239    O    0.05376   0.63394   0.05379   1.000
loop_
    _geom_bond_atom_site_label_1
    _geom_bond_atom_site_label_2
    _geom_bond_distance
    _geom_bond_site_symmetry_2
    _ccdc_geom_bond_type
    Zr24   O92       0.63863  1_545   S
    Zr43   O92       0.63863      .   S
    Zr24   O93       0.63872  1_554   S
    Zr51   O93       0.63872      .   S
    Zr18   O94       0.63839      .   S
    Zr58   O94       0.63839      .   S
    Zr18   O95       0.63853  1_554   S
    Zr59   O95       0.63853      .   S
    Zr26   O96       0.63858  1_455   S
    Zr49   O96       0.63858      .   S
    Zr26   O97       0.63870  1_554   S
    Zr45   O97       0.63870      .   S
    Zr77   O98       0.98668  1_554   S
    Zr11   O98       0.98668      .   S
    Zr77   O99       0.63862      .   S
    Zr36   O99       0.63862  1_556   S
    Zr85   O100      0.98773  1_554   S
    Zr11   O100      0.98773      .   S
    Zr85   O101      0.63851      .   S
    Zr30   O101      0.63851  1_556   S
    Zr3    O102      0.98693  1_554   S
    Zr51   O102      0.98693      .   S
    Zr3    O103      0.98696      .   S
    Zr45   O103      0.98696  1_556   S
    Zr3    O104      0.98773      .   S
    Zr59   O104      0.98773  1_556   S
    Zr71   O105      0.98687  1_554   S
    Zr11   O105      0.98687      .   S
    Zr71   O106      0.63871      .   S
    Zr38   O106      0.63871  1_556   S
    Zr43   O107      0.98654  1_565   S
    Zr1    O107      0.98654      .   S
    Zr58   O108      0.98607      .   S
    Zr7    O108      0.98607      .   S
    Zr49   O109      0.98615  1_655   S
    Zr5    O109      0.98615      .   S
    Zr65   O110      0.98456      .   S
    Zr7    O110      0.98456      .   S
    Zr65   O111      0.98448      .   S
    Zr5    O111      0.98448      .   S
    Zr82   O112      0.63890      .   S
    Zr31   O112      0.63890      .   S
    Zr82   O113      0.98613      .   S
    Zr10   O113      0.98613      .   S
    Zr68   O114      0.63925      .   S
    Zr37   O114      0.63925      .   S
    Zr68   O115      0.98707      .   S
    Zr10   O115      0.98707      .   S
    Zr74   O116      0.63924      .   S
    Zr39   O116      0.63924      .   S
    Zr74   O117      0.98697      .   S
    Zr10   O117      0.98697      .   S
    Zr7    O118      0.98650      .   S
    Zr62   O118      0.98650      .   S
    Zr7    O119      0.98637      .   S
    Zr54   O119      0.98637      .   S
    Zr1    O120      0.98732      .   S
    Zr55   O120      0.98732  1_565   S
    Zr1    O121      0.98671      .   S
    Zr47   O121      0.98671  1_565   S
    Zr5    O122      0.98658      .   S
    Zr63   O122      0.98658  1_655   S
    Zr5    O123      0.98637      .   S
    Zr41   O123      0.98637  1_655   S
    Zr31   O124      0.63883      .   S
    Zr83   O124      0.63883      .   S
    Zr37   O125      0.63924      .   S
    Zr76   O125      0.63924      .   S
    Zr39   O126      0.63918      .   S
    Zr70   O126      0.63918      .   S
    Zr62   O127      0.63842      .   S
    Zr20   O127      0.63842      .   S
    Zr54   O128      0.63841      .   S
    Zr16   O128      0.63841      .   S
    Zr63   O129      0.63863      .   S
    Zr20   O129      0.63863  1_455   S
    Zr55   O130      0.63847      .   S
    Zr16   O130      0.63847  1_545   S
    Zr47   O131      0.63871      .   S
    Zr22   O131      0.63871  1_545   S
    Zr41   O132      0.63861      .   S
    Zr22   O132      0.63861  1_455   S
    Zr83   O133      0.98612      .   S
    Zr14   O133      0.98612      .   S
    Zr76   O134      0.98641      .   S
    Zr8    O134      0.98641      .   S
    Zr70   O135      0.98668      .   S
    Zr12   O135      0.98668      .   S
    Zr90   O136      0.98326      .   S
    Zr8    O136      0.98326      .   S
    Zr90   O137      0.98336      .   S
    Zr12   O137      0.98336      .   S
    Zr8    O138      0.98658      .   S
    Zr66   O138      0.98658      .   S
    Zr8    O139      0.98556      .   S
    Zr78   O139      0.98556      .   S
    Zr12   O140      0.98690      .   S
    Zr72   O140      0.98690      .   S
    Zr12   O141      0.98574      .   S
    Zr86   O141      0.98574      .   S
    Zr14   O142      0.98640      .   S
    Zr79   O142      0.98640      .   S
    Zr14   O143      0.98634      .   S
    Zr87   O143      0.98634      .   S
    Zr72   O144      0.63924      .   S
    Zr35   O144      0.63924      .   S
    Zr66   O145      0.63920      .   S
    Zr35   O145      0.63920      .   S
    Zr78   O146      0.63887      .   S
    Zr29   O146      0.63887      .   S
    Zr86   O147      0.63891      .   S
    Zr33   O147      0.63891      .   S
    Zr79   O148      0.63880      .   S
    Zr29   O148      0.63880      .   S
    Zr87   O149      0.63881      .   S
    Zr33   O149      0.63881      .   S
    Zr17   O150      0.63880      .   S
    Zr53   O150      0.63880      .   S
    Zr17   O151      0.63892      .   S
    Zr52   O151      0.63892      .   S
    Zr21   O152      0.63880      .   S
    Zr61   O152      0.63880      .   S
    Zr21   O153      0.63888      .   S
    Zr60   O153      0.63888      .   S
    Zr23   O154      0.63920      .   S
    Zr46   O154      0.63920      .   S
    Zr23   O155      0.63924      .   S
    Zr40   O155      0.63924      .   S
    Zr53   O156      0.98593      .   S
    Zr6    O156      0.98593      .   S
    Zr61   O157      0.98603      .   S
    Zr6    O157      0.98603      .   S
    Zr52   O158      0.98581      .   S
    Zr0    O158      0.98581      .   S
    Zr60   O159      0.98559      .   S
    Zr4    O159      0.98559      .   S
    Zr46   O160      0.98658      .   S
    Zr4    O160      0.98658      .   S
    Zr40   O161      0.98691      .   S
    Zr0    O161      0.98691      .   S
    Zr6    O162      0.98624      .   S
    Zr57   O162      0.98624      .   S
    Zr0    O163      0.98336      .   S
    Zr64   O163      0.98336      .   S
    Zr0    O164      0.98630      .   S
    Zr50   O164      0.98630      .   S
    Zr4    O165      0.98326      .   S
    Zr64   O165      0.98326      .   S
    Zr4    O166      0.98641      .   S
    Zr44   O166      0.98641      .   S
    Zr34   O167      0.63862  1_655   S
    Zr73   O167      0.63862      .   S
    Zr34   O168      0.63869  1_565   S
    Zr67   O168      0.63869      .   S
    Zr32   O169      0.63847  1_565   S
    Zr89   O169      0.63847      .   S
    Zr32   O170      0.63841      .   S
    Zr88   O170      0.63841      .   S
    Zr28   O171      0.63820  1_655   S
    Zr81   O171      0.63820      .   S
    Zr28   O172      0.63842      .   S
    Zr80   O172      0.63842      .   S
    Zr50   O173      0.63954      .   S
    Zr25   O173      0.63954      .   S
    Zr44   O174      0.63917      .   S
    Zr27   O174      0.63917      .   S
    Zr57   O175      0.63899      .   S
    Zr19   O175      0.63899      .   S
    Zr73   O176      0.98637  1_455   S
    Zr9    O176      0.98637      .   S
    Zr67   O177      0.98672  1_545   S
    Zr13   O177      0.98672      .   S
    Zr89   O178      0.98736  1_545   S
    Zr13   O178      0.98736      .   S
    Zr81   O179      0.98699  1_455   S
    Zr9    O179      0.98699      .   S
    Zr88   O180      0.98626      .   S
    Zr15   O180      0.98626      .   S
    Zr80   O181      0.98644      .   S
    Zr15   O181      0.98644      .   S
    Zr2    O182      0.98674      .   S
    Zr42   O182      0.98674      .   S
    Zr2    O183      0.98724      .   S
    Zr48   O183      0.98724      .   S
    Zr2    O184      0.98608      .   S
    Zr56   O184      0.98608      .   S
    Zr25   O185      0.63916      .   S
    Zr42   O185      0.63916      .   S
    Zr27   O186      0.63926      .   S
    Zr48   O186      0.63926      .   S
    Zr19   O187      0.63890      .   S
    Zr56   O187      0.63890      .   S
    Zr9    O188      0.98447      .   S
    Zr91   O188      0.98447      .   S
    Zr9    O189      0.98549      .   S
    Zr69   O189      0.98549  1_455   S
    Zr13   O190      0.98468      .   S
    Zr91   O190      0.98468      .   S
    Zr13   O191      0.98646      .   S
    Zr75   O191      0.98646  1_545   S
    Zr15   O192      0.98609      .   S
    Zr84   O192      0.98609      .   S
    Zr69   O193      0.63928      .   S
    Zr36   O193      0.63928  1_655   S
    Zr84   O194      0.63847      .   S
    Zr30   O194      0.63847      .   S
    Zr75   O195      0.63870      .   S
    Zr38   O195      0.63870  1_565   S
    Zr64   O196      0.98349      .   S
    Zr2    O196      0.98349      .   S
    Zr64   O197      0.98410      .   S
    Zr6    O197      0.98410      .   S
    Zr65   O198      0.98468      .   S
    Zr1    O198      0.98468      .   S
    Zr65   O199      0.98484      .   S
    Zr3    O199      0.98484      .   S
    Zr90   O200      0.98364      .   S
    Zr10   O200      0.98364      .   S
    Zr90   O201      0.98358      .   S
    Zr14   O201      0.98358      .   S
    Zr91   O202      0.98484      .   S
    Zr11   O202      0.98484      .   S
    Zr91   O203      0.98469      .   S
    Zr15   O203      0.98469      .   S
    N204   O205      1.07421      .   S
    Zr24   O205      1.82292  1_544   S
    N204   O206      1.07426      .   S
    Zr25   O206      1.82146      .   S
    N207   O208      1.07409      .   S
    Zr17   O208      1.82188      .   S
    N207   O209      1.07379      .   S
    Zr16   O209      1.82217  1_545   S
    N210   O211      1.07412      .   S
    Zr19   O211      1.82197      .   S
    N210   O212      1.07387      .   S
    Zr18   O212      1.82225  1_554   S
    N213   O214      1.07417      .   S
    Zr23   O214      1.82134      .   S
    N213   O215      1.07395      .   S
    Zr22   O215      1.82235  1_445   S
    N216   O217      1.07381      .   S
    Zr32   O217      1.82219  1_565   S
    N216   O218      1.07408      .   S
    Zr33   O218      1.82190      .   S
    N219   O220      1.07425      .   S
    Zr27   O220      1.82149      .   S
    N219   O221      1.07405      .   S
    Zr26   O221      1.82255  1_454   S
    N222   O223      1.07395      .   S
    Zr34   O223      1.82236  1_665   S
    N222   O224      1.07418      .   S
    Zr35   O224      1.82136      .   S
    N225   O226      1.07438      .   S
    Zr39   O226      1.82165      .   S
    N225   O227      1.07409      .   S
    Zr38   O227      1.82273  1_566   S
    N228   O229      1.07386      .   S
    Zr29   O229      1.82160      .   S
    N228   O230      1.07379      .   S
    Zr28   O230      1.82204  1_655   S
    N231   O232      1.07412      .   S
    Zr31   O232      1.82196      .   S
    N231   O233      1.07388      .   S
    Zr30   O233      1.82225  1_556   S
    N234   O235      1.07372      .   S
    Zr20   O235      1.82200  1_455   S
    N234   O236      1.07394      .   S
    Zr21   O236      1.82164      .   S
    N237   O238      1.07427      .   S
    Zr37   O238      1.82145      .   S
    N237   O239      1.07398      .   S
    Zr36   O239      1.82248  1_656   S
