# CIF file generated by openbabel 2.4.90, see http://openbabel.sf.net
data_I
_chemical_name_common ''
_cell_length_a 15.191
_cell_length_b 15.284
_cell_length_c 22.58
_cell_angle_alpha 107.064
_cell_angle_beta 106.784
_cell_angle_gamma 97.779
_space_group_name_H-M_alt 'P 1'
_space_group_name_Hall 'P 1'
loop_
    _symmetry_equiv_pos_as_xyz
    x,y,z
loop_
    _atom_site_label
    _atom_site_type_symbol
    _atom_site_fract_x
    _atom_site_fract_y
    _atom_site_fract_z
    _atom_site_occupancy
    Zr0     Zr   0.14461   0.14466   0.28974   1.000
    Zr1     Zr   0.14451   0.14474   0.78974   1.000
    Zr2     Zr   0.14441   0.64479   0.28976   1.000
    Zr3     Zr   0.14443   0.64480   0.78976   1.000
    Zr4     Zr   0.64440   0.14480   0.28976   1.000
    Zr5     Zr   0.64442   0.14480   0.78970   1.000
    Zr6     Zr   0.64460   0.64466   0.28973   1.000
    Zr7     Zr   0.64451   0.64472   0.78975   1.000
    Zr8     Zr   0.35528   0.35551   0.21022   1.000
    Zr9     Zr   0.35530   0.35551   0.71023   1.000
    Zr10    Zr   0.35548   0.85539   0.21020   1.000
    Zr11    Zr   0.35539   0.85544   0.71021   1.000
    Zr12    Zr   0.85548   0.35539   0.21021   1.000
    Zr13    Zr   0.85538   0.35546   0.71021   1.000
    Zr14    Zr   0.85527   0.85550   0.21022   1.000
    Zr15    Zr   0.85530   0.85551   0.71020   1.000
    Zr16    Zr   0.00000   0.25000   0.25002   1.000
    Zr17    Zr   0.00008   0.25036   0.75008   1.000
    Zr18    Zr   0.00018   0.75070   0.25014   1.000
    Zr19    Zr   0.00017   0.75067   0.75016   1.000
    Zr20    Zr   0.50018   0.25074   0.25014   1.000
    Zr21    Zr   0.50015   0.25066   0.75016   1.000
    Zr22    Zr   0.50002   0.75007   0.25003   1.000
    Zr23    Zr   0.50007   0.75032   0.75007   1.000
    Zr24    Zr   0.25033   0.00016   0.25000   1.000
    Zr25    Zr   0.24990   0.00007   0.74998   1.000
    Zr26    Zr   0.24940   0.49993   0.24982   1.000
    Zr27    Zr   0.24950   0.49997   0.74980   1.000
    Zr28    Zr   0.74939   0.99993   0.24982   1.000
    Zr29    Zr   0.74949   0.99998   0.74985   1.000
    Zr30    Zr   0.75033   0.50015   0.25008   1.000
    Zr31    Zr   0.74989   0.50006   0.74990   1.000
    Zr32    Zr   0.22716   0.33606   0.70000   1.000
    O33     O    0.29123   0.34579   0.70511   1.000
    N34     N    0.74993   0.00013   0.49998   1.000
    O35     O    0.74935   0.99720   0.39691   1.000
    O36     O    0.75014   0.00292   0.60293   1.000
    O37     O    0.79721   0.93955   0.58538   1.000
    O38     O    0.70260   0.06075   0.41459   1.000
    O39     O    0.71145   0.85386   0.41460   1.000
    O40     O    0.78847   0.14637   0.58535   1.000
    O41     O    0.85273   0.10039   0.60298   1.000
    O42     O    0.64720   0.89992   0.39703   1.000
    N43     N    0.24994   0.50011   0.49997   1.000
    O44     O    0.25015   0.50290   0.60292   1.000
    O45     O    0.24936   0.49718   0.39690   1.000
    O46     O    0.29722   0.43954   0.58539   1.000
    O47     O    0.20261   0.56073   0.41458   1.000
    O48     O    0.14720   0.39988   0.39702   1.000
    O49     O    0.28848   0.64635   0.58535   1.000
    O50     O    0.21146   0.35384   0.41460   1.000
    O51     O    0.35273   0.60036   0.60298   1.000
    N52     N    0.25069   0.00462   0.49527   1.000
    O53     O    0.28883   0.14864   0.58301   1.000
    O54     O    0.20308   0.06295   0.41223   1.000
    O55     O    0.14768   0.90243   0.39472   1.000
    O56     O    0.25011   0.99955   0.39464   1.000
    O57     O    0.25069   0.00521   0.60064   1.000
    O58     O    0.29764   0.94177   0.58294   1.000
    O59     O    0.35316   0.10276   0.60067   1.000
    O60     O    0.21176   0.85615   0.41225   1.000
    N61     N    0.25114   0.50877   0.99997   1.000
    O62     O    0.25070   0.50721   0.10291   1.000
    O63     O    0.14783   0.40435   0.89704   1.000
    O64     O    0.25001   0.50154   0.89691   1.000
    O65     O    0.29780   0.44386   0.08538   1.000
    O66     O    0.20323   0.56507   0.91459   1.000
    O67     O    0.28912   0.65066   0.08534   1.000
    O68     O    0.21201   0.35821   0.91460   1.000
    O69     O    0.35331   0.60459   0.10296   1.000
    N70     N    0.24818   0.98602   0.00005   1.000
    O71     O    0.28757   0.13934   0.08540   1.000
    O72     O    0.20179   0.05368   0.91463   1.000
    O73     O    0.14642   0.89312   0.89712   1.000
    O74     O    0.24960   0.99595   0.10305   1.000
    O75     O    0.29643   0.93245   0.08542   1.000
    O76     O    0.35192   0.09348   0.10305   1.000
    O77     O    0.21052   0.84686   0.91466   1.000
    O78     O    0.24869   0.99021   0.89702   1.000
    N79     N    0.75011   0.50025   0.50005   1.000
    O80     O    0.79735   0.43960   0.58543   1.000
    O81     O    0.78854   0.64646   0.58540   1.000
    O82     O    0.85288   0.60058   0.60307   1.000
    O83     O    0.75040   0.50303   0.60301   1.000
    O84     O    0.70280   0.56077   0.41462   1.000
    O85     O    0.71147   0.35398   0.41466   1.000
    O86     O    0.74982   0.49737   0.39706   1.000
    O87     O    0.64739   0.40027   0.39711   1.000
    N88     N    0.75113   0.00875   0.99996   1.000
    O89     O    0.75000   0.00153   0.89691   1.000
    O90     O    0.75069   0.00720   0.10291   1.000
    O91     O    0.79779   0.94385   0.08538   1.000
    O92     O    0.64782   0.90433   0.89702   1.000
    O93     O    0.71201   0.85819   0.91460   1.000
    O94     O    0.78911   0.15065   0.08534   1.000
    O95     O    0.85330   0.10456   0.10296   1.000
    O96     O    0.70321   0.06506   0.91457   1.000
    N97     N    0.69773   0.47724   0.85922   1.000
    O98     O    0.67542   0.52913   0.85613   1.000
    O99     O    0.72232   0.46566   0.83849   1.000
    N100    N    0.80244   0.52315   0.14825   1.000
    O101    O    0.82471   0.47121   0.14947   1.000
    O102    O    0.77788   0.53470   0.16712   1.000
    C103    C    0.51351   0.65681   0.31254   1.000
    O104    O    0.50957   0.67733   0.29115   1.000
    O105    O    0.54571   0.65098   0.30107   1.000
    C106    C    0.13187   0.23766   0.22919   1.000
    O107    O    0.09279   0.23412   0.23398   1.000
    O108    O    0.12894   0.20779   0.24391   1.000
    C109    C    0.20163   0.84433   0.18711   1.000
    O110    O    0.21898   0.88627   0.20855   1.000
    O111    O    0.24527   0.85008   0.19860   1.000
    C112    C    0.59755   0.49134   0.22912   1.000
    O113    O    0.64144   0.49976   0.23394   1.000
    O114    O    0.61501   0.53589   0.24385   1.000
    C115    C    0.63187   0.73767   0.22918   1.000
    O116    O    0.62894   0.70780   0.24390   1.000
    O117    O    0.59279   0.73415   0.23398   1.000
    C118    C    0.09756   0.99134   0.22912   1.000
    O119    O    0.14144   0.99976   0.23392   1.000
    O120    O    0.11501   0.03588   0.24386   1.000
    C121    C    0.29860   0.15602   0.31277   1.000
    O122    O    0.25493   0.15018   0.30124   1.000
    O123    O    0.28136   0.11405   0.29130   1.000
    C124    C    0.48655   0.84318   0.18735   1.000
    O125    O    0.45435   0.84904   0.19882   1.000
    O126    O    0.49048   0.82270   0.20878   1.000
    C127    C    0.98655   0.34315   0.18739   1.000
    O128    O    0.95434   0.34901   0.19887   1.000
    O129    O    0.99047   0.32267   0.20882   1.000
    C130    C    0.00562   0.15678   0.31257   1.000
    O131    O    0.00562   0.17730   0.29116   1.000
    O132    O    0.04177   0.15096   0.30109   1.000
    C133    C    0.70162   0.34433   0.18731   1.000
    O134    O    0.71898   0.38627   0.20877   1.000
    O135    O    0.74527   0.35008   0.19881   1.000
    C136    C    0.36806   0.76239   0.27071   1.000
    O137    O    0.37104   0.79227   0.25601   1.000
    O138    O    0.40717   0.76594   0.26596   1.000
    C139    C    0.79860   0.65602   0.31277   1.000
    O140    O    0.75493   0.65018   0.30123   1.000
    O141    O    0.78136   0.61405   0.29132   1.000
    C142    C    0.90287   0.50887   0.27088   1.000
    O143    O    0.88535   0.46428   0.25614   1.000
    O144    O    0.85906   0.50047   0.26611   1.000
    C145    C    0.40288   0.00888   0.27088   1.000
    O146    O    0.35907   0.00048   0.26609   1.000
    O147    O    0.38536   0.96429   0.25614   1.000
    C148    C    0.86804   0.26239   0.27072   1.000
    O149    O    0.87103   0.29226   0.25601   1.000
    O150    O    0.90716   0.26591   0.26596   1.000
    C151    C    0.98649   0.84353   0.68745   1.000
    O152    O    0.99047   0.82313   0.70890   1.000
    O153    O    0.95425   0.84933   0.69891   1.000
    C154    C    0.20131   0.34413   0.68717   1.000
    O155    O    0.21853   0.38610   0.70860   1.000
    O156    O    0.24498   0.34998   0.69871   1.000
    C157    C    0.79829   0.15583   0.81263   1.000
    O158    O    0.78091   0.11388   0.79117   1.000
    O159    O    0.75464   0.15009   0.80113   1.000
    C160    C    0.86811   0.76257   0.77081   1.000
    O161    O    0.87101   0.79244   0.75609   1.000
    O162    O    0.90723   0.76623   0.76608   1.000
    C163    C    0.59698   0.99136   0.72902   1.000
    O164    O    0.64079   0.99973   0.73381   1.000
    O165    O    0.61453   0.03594   0.74377   1.000
    C166    C    0.63192   0.23785   0.72924   1.000
    O167    O    0.62892   0.20798   0.74394   1.000
    O168    O    0.59285   0.23444   0.73405   1.000
    C169    C    0.29830   0.65582   0.81261   1.000
    O170    O    0.25465   0.65008   0.80112   1.000
    O171    O    0.28092   0.61388   0.79113   1.000
    C172    C    0.00561   0.65721   0.81266   1.000
    O173    O    0.04172   0.65133   0.80116   1.000
    O174    O    0.00565   0.67780   0.79126   1.000
    C175    C    0.51345   0.15720   0.81265   1.000
    O176    O    0.54563   0.15131   0.80114   1.000
    O177    O    0.50956   0.17778   0.79126   1.000
    C178    C    0.40231   0.50888   0.77080   1.000
    O179    O    0.38487   0.46432   0.75608   1.000
    O180    O    0.35842   0.50044   0.76598   1.000
    C181    C    0.09699   0.49137   0.72905   1.000
    O182    O    0.14080   0.49974   0.73381   1.000
    O183    O    0.11454   0.53594   0.74380   1.000
    C184    C    0.36811   0.26256   0.77079   1.000
    O185    O    0.37101   0.29244   0.75608   1.000
    O186    O    0.40723   0.26622   0.76606   1.000
    C187    C    0.48648   0.34352   0.68745   1.000
    O188    O    0.49047   0.32311   0.70890   1.000
    O189    O    0.45425   0.34933   0.69892   1.000
    C190    C    0.90229   0.00889   0.77080   1.000
    O191    O    0.88486   0.96433   0.75608   1.000
    O192    O    0.85841   0.00044   0.76599   1.000
    C193    C    0.13194   0.73785   0.72924   1.000
    O194    O    0.12893   0.70798   0.74395   1.000
    O195    O    0.09286   0.73445   0.73405   1.000
    C196    C    0.70131   0.84412   0.68717   1.000
    O197    O    0.74497   0.84998   0.69870   1.000
    O198    O    0.71852   0.88610   0.70861   1.000
    C199    C    0.98650   0.34336   0.68741   1.000
    O200    O    0.99046   0.32291   0.70885   1.000
    O201    O    0.95428   0.34919   0.69888   1.000
    C202    C    0.00560   0.15700   0.81259   1.000
    O203    O    0.04173   0.15115   0.80111   1.000
    O204    O    0.00563   0.17755   0.79119   1.000
    C205    C    0.63188   0.73773   0.72919   1.000
    O206    O    0.62892   0.70786   0.74391   1.000
    O207    O    0.59281   0.73426   0.73399   1.000
    C208    C    0.29845   0.15593   0.81271   1.000
    O209    O    0.25479   0.15014   0.80119   1.000
    O210    O    0.28113   0.11397   0.79125   1.000
    C211    C    0.51346   0.65697   0.81259   1.000
    O212    O    0.54566   0.65112   0.80111   1.000
    O213    O    0.50955   0.67752   0.79119   1.000
    C214    C    0.70146   0.34423   0.68724   1.000
    O215    O    0.71874   0.38619   0.70868   1.000
    O216    O    0.74511   0.35004   0.69876   1.000
    C217    C    0.59726   0.49136   0.72909   1.000
    O218    O    0.64110   0.49974   0.73387   1.000
    O219    O    0.61476   0.53591   0.74383   1.000
    C220    C    0.48650   0.84333   0.68741   1.000
    O221    O    0.49046   0.82288   0.70885   1.000
    O222    O    0.45429   0.84916   0.69888   1.000
    C223    C    0.79845   0.65592   0.81271   1.000
    O224    O    0.75478   0.65013   0.80120   1.000
    O225    O    0.78113   0.61396   0.79123   1.000
    C226    C    0.13189   0.23775   0.72920   1.000
    O227    O    0.12892   0.20788   0.74392   1.000
    O228    O    0.09281   0.23429   0.73400   1.000
    C229    C    0.20147   0.84422   0.68724   1.000
    O230    O    0.21876   0.88618   0.70870   1.000
    O231    O    0.24513   0.85003   0.69876   1.000
    C232    C    0.90257   0.50889   0.77086   1.000
    O233    O    0.88510   0.46431   0.75612   1.000
    O234    O    0.85873   0.50046   0.76605   1.000
    C235    C    0.09727   0.99136   0.72909   1.000
    O236    O    0.11477   0.03592   0.74383   1.000
    O237    O    0.14111   0.99975   0.73389   1.000
    C238    C    0.40258   0.00888   0.77086   1.000
    O239    O    0.38511   0.96430   0.75612   1.000
    O240    O    0.35874   0.00046   0.76607   1.000
    C241    C    0.36807   0.76245   0.77076   1.000
    O242    O    0.37101   0.79233   0.75605   1.000
    O243    O    0.40718   0.76605   0.76602   1.000
    C244    C    0.86806   0.26247   0.77076   1.000
    O245    O    0.87100   0.29235   0.75605   1.000
    O246    O    0.90718   0.26607   0.76602   1.000
    C247    C    0.48648   0.34358   0.18743   1.000
    O248    O    0.49047   0.32318   0.20888   1.000
    O249    O    0.45424   0.34937   0.19890   1.000
    C250    C    0.98648   0.84356   0.18741   1.000
    O251    O    0.95424   0.84935   0.19889   1.000
    O252    O    0.99047   0.82315   0.20887   1.000
    C253    C    0.86814   0.76256   0.27081   1.000
    O254    O    0.90725   0.76624   0.26607   1.000
    O255    O    0.87103   0.79244   0.25609   1.000
    C256    C    0.40223   0.50886   0.27055   1.000
    O257    O    0.38481   0.46431   0.25583   1.000
    O258    O    0.35834   0.50041   0.26573   1.000
    C259    C    0.29826   0.65577   0.31260   1.000
    O260    O    0.25461   0.65004   0.30111   1.000
    O261    O    0.28086   0.61383   0.29113   1.000
    C262    C    0.70126   0.84407   0.18715   1.000
    O263    O    0.71846   0.88605   0.20860   1.000
    O264    O    0.74494   0.84994   0.19870   1.000
    C265    C    0.51346   0.15728   0.31266   1.000
    O266    O    0.54563   0.15138   0.30116   1.000
    O267    O    0.50957   0.17786   0.29126   1.000
    C268    C    0.90223   0.00885   0.27080   1.000
    O269    O    0.85833   0.00040   0.26598   1.000
    O270    O    0.88480   0.96430   0.25608   1.000
    C271    C    0.20126   0.34408   0.18715   1.000
    O272    O    0.24494   0.34995   0.19870   1.000
    O273    O    0.21847   0.38605   0.20860   1.000
    C274    C    0.59691   0.99134   0.22904   1.000
    O275    O    0.61447   0.03593   0.24380   1.000
    O276    O    0.64071   0.99971   0.23381   1.000
    C277    C    0.09692   0.49133   0.22905   1.000
    O278    O    0.11447   0.53591   0.24380   1.000
    O279    O    0.14072   0.49969   0.23381   1.000
    C280    C    0.00560   0.65725   0.31265   1.000
    O281    O    0.00565   0.67783   0.29125   1.000
    O282    O    0.04171   0.65135   0.30115   1.000
    C283    C    0.63196   0.23787   0.22925   1.000
    O284    O    0.59288   0.23448   0.23405   1.000
    O285    O    0.62894   0.20799   0.24396   1.000
    C286    C    0.36815   0.26258   0.27081   1.000
    O287    O    0.40726   0.26626   0.26607   1.000
    O288    O    0.37103   0.29246   0.25609   1.000
    C289    C    0.13197   0.73785   0.22923   1.000
    O290    O    0.09289   0.73445   0.23404   1.000
    O291    O    0.12895   0.70798   0.24395   1.000
    C292    C    0.79825   0.15578   0.31262   1.000
    O293    O    0.75460   0.15006   0.30114   1.000
    O294    O    0.78085   0.11384   0.29115   1.000
    C295    C    0.66655   0.37594   0.85927   1.000
    O296    O    0.68414   0.32231   0.85614   1.000
    O297    O    0.62004   0.36856   0.83862   1.000
    O298    O    0.69545   0.43693   0.88305   1.000
    C299    C    0.83360   0.62462   0.14824   1.000
    O300    O    0.81585   0.67809   0.14945   1.000
    O301    O    0.88020   0.63223   0.16711   1.000
    O302    O    0.80474   0.56354   0.12816   1.000
loop_
    _geom_bond_atom_site_label_1
    _geom_bond_atom_site_label_2
    _geom_bond_distance
    _geom_bond_site_symmetry_2
    _ccdc_geom_bond_type
    Zr9    O33       0.93201      .   S
    Zr32   O33       0.93201      .   S
    N34    O35       2.31202  1_545   S
    Zr28   O35       3.33386      .   S
    N34    O36       2.31168      .   S
    Zr29   O36       3.33373  1_565   S
    N34    O37       2.34953  1_545   S
    Zr15   O37       3.37147      .   S
    N34    O38       2.34964      .   S
    Zr4    O38       3.37200      .   S
    N34    O39       2.34990  1_545   S
    Zr6    O39       3.37352      .   S
    N34    O40       2.34947      .   S
    Zr13   O40       3.37230      .   S
    N34    O41       2.31506      .   S
    Zr17   O41       3.33851  1_455   S
    N34    O42       2.31366  1_545   S
    Zr22   O42       3.33591      .   S
    N43    O44       2.31139      .   S
    Zr27   O44       3.33285      .   S
    N43    O45       2.31206      .   S
    Zr26   O45       3.33379      .   S
    N43    O46       2.34962      .   S
    Zr9    O46       3.37183      .   S
    N43    O47       2.34978      .   S
    Zr2    O47       3.37180      .   S
    N43    O48       2.31380      .   S
    Zr16   O48       3.33616      .   S
    N43    O49       2.34949      .   S
    Zr11   O49       3.37236      .   S
    N43    O50       2.34979      .   S
    Zr0    O50       3.37330      .   S
    N43    O51       2.31500      .   S
    Zr23   O51       3.33830      .   S
    N52    O53       2.35344      .   S
    Zr9    O53       3.37614      .   S
    N52    O54       2.28156      .   S
    Zr0    O54       3.30262      .   S
    N52    O55       2.29087  1_545   S
    Zr18   O55       3.31389      .   S
    N52    O56       2.24796  1_545   S
    Zr24   O56       3.26977  1_545   S
    N52    O57       2.37664      .   S
    Zr25   O57       3.39946      .   S
    N52    O58       2.41582  1_545   S
    Zr11   O58       3.44276      .   S
    N52    O59       2.33892      .   S
    Zr21   O59       3.36042      .   S
    N52    O60       2.34799  1_545   S
    Zr2    O60       3.37044      .   S
    N61    O62       2.33339  1_556   S
    Zr26   O62       3.35711      .   S
    N61    O63       2.33451      .   S
    Zr17   O63       3.35770      .   S
    N61    O64       2.29220      .   S
    Zr27   O64       3.31252      .   S
    N61    O65       2.39361  1_556   S
    Zr8    O65       3.41509      .   S
    N61    O66       2.30656      .   S
    Zr3    O66       3.32925      .   S
    N61    O67       2.30602  1_556   S
    Zr10   O67       3.32909      .   S
    N61    O68       2.39361      .   S
    Zr1    O68       3.41637      .   S
    N61    O69       2.29422  1_556   S
    Zr22   O69       3.31496      .   S
    N70    O71       2.42230  1_565   S
    Zr8    O71       3.44365      .   S
    N70    O72       2.42273  1_564   S
    Zr1    O72       3.44387      .   S
    N70    O73       2.28071  1_554   S
    Zr19   O73       3.29855      .   S
    N70    O74       2.27929      .   S
    Zr24   O74       3.29661  1_545   S
    N70    O75       2.27941      .   S
    Zr10   O75       3.30216      .   S
    N70    O76       2.35184  1_565   S
    Zr20   O76       3.37775      .   S
    N70    O77       2.27936  1_554   S
    Zr3    O77       3.30352      .   S
    N70    O78       2.34838  1_554   S
    Zr25   O78       3.37254  1_545   S
    N79    O80       2.34961      .   S
    Zr13   O80       3.37172      .   S
    N79    O81       2.34899      .   S
    Zr15   O81       3.37145      .   S
    N79    O82       2.31523      .   S
    Zr19   O82       3.33879  1_455   S
    N79    O83       2.31144      .   S
    Zr31   O83       3.33254      .   S
    N79    O84       2.34941      .   S
    Zr6    O84       3.37160      .   S
    N79    O85       2.34985      .   S
    Zr4    O85       3.37343      .   S
    N79    O86       2.31176      .   S
    Zr30   O86       3.33375      .   S
    N79    O87       2.31264      .   S
    Zr20   O87       3.33420      .   S
    N88    O89       2.29188      .   S
    Zr29   O89       3.31155  1_565   S
    N88    O90       2.33344  1_556   S
    Zr28   O90       3.35713  1_565   S
    N88    O91       2.39370  1_546   S
    Zr14   O91       3.41516      .   S
    N88    O92       2.33469  1_545   S
    Zr23   O92       3.35766      .   S
    N88    O93       2.39352  1_545   S
    Zr7    O93       3.41619      .   S
    N88    O94       2.30614  1_556   S
    Zr12   O94       3.32934      .   S
    N88    O95       2.29417  1_556   S
    Zr16   O95       3.31478  1_455   S
    N88    O96       2.30681      .   S
    Zr5    O96       3.33016      .   S
    N97    O98       0.91665      .   S
    Zr7    O98       2.63828      .   S
    N97    O99       0.67835      .   S
    Zr31   O99       2.34413      .   S
    N100   O101      0.90859      .   S
    Zr12   O101      2.55171      .   S
    N100   O102      0.64610      .   S
    Zr30   O102      2.22176      .   S
    C103   O104      0.64237      .   S
    Zr22   O104      1.64022      .   S
    C103   O105      0.62111      .   S
    Zr6    O105      1.60576      .   S
    C106   O107      0.63158      .   S
    Zr16   O107      1.58518      .   S
    C106   O108      0.64266      .   S
    Zr0    O108      1.60135      .   S
    C109   O110      0.64289      .   S
    Zr24   O110      1.64154  1_545   S
    C109   O111      0.62140      .   S
    Zr10   O111      1.60491      .   S
    C112   O113      0.63209      .   S
    Zr30   O113      1.58650      .   S
    C112   O114      0.64163      .   S
    Zr6    O114      1.59915      .   S
    C115   O116      0.64268      .   S
    Zr6    O116      1.60136      .   S
    C115   O117      0.63160      .   S
    Zr22   O117      1.58522      .   S
    C118   O119      0.63212      .   S
    Zr24   O119      1.58651  1_545   S
    C118   O120      0.64168  1_565   S
    Zr0    O120      1.59924      .   S
    C121   O122      0.62164      .   S
    Zr0    O122      1.60649      .   S
    C121   O123      0.64325      .   S
    Zr24   O123      1.64116      .   S
    C124   O125      0.62124      .   S
    Zr10   O125      1.60584      .   S
    C124   O126      0.64264      .   S
    Zr22   O126      1.64117      .   S
    C127   O128      0.62129      .   S
    Zr12   O128      1.60550      .   S
    C127   O129      0.64272      .   S
    Zr16   O129      1.64073  1_455   S
    C130   O131      0.64886      .   S
    Zr16   O131      1.64035      .   S
    C130   O132      0.67726      .   S
    Zr0    O132      1.66524      .   S
    C133   O134      0.64302      .   S
    Zr30   O134      1.64088      .   S
    C133   O135      0.62141      .   S
    Zr12   O135      1.60561      .   S
    C136   O137      0.64257      .   S
    Zr10   O137      1.60084      .   S
    C136   O138      0.63166      .   S
    Zr22   O138      1.58499      .   S
    C139   O140      0.62165      .   S
    Zr6    O140      1.60651      .   S
    C139   O141      0.64311      .   S
    Zr30   O141      1.64097      .   S
    C142   O143      0.64241      .   S
    Zr12   O143      1.60072      .   S
    C142   O144      0.63113      .   S
    Zr30   O144      1.58456      .   S
    C145   O146      0.63103      .   S
    Zr24   O146      1.58453      .   S
    C145   O147      0.64246  1_545   S
    Zr10   O147      1.60079      .   S
    C148   O149      0.64256      .   S
    Zr12   O149      1.60080      .   S
    C148   O150      0.63171      .   S
    Zr16   O150      1.58517  1_455   S
    C151   O152      0.64215      .   S
    Zr19   O152      1.63897  1_455   S
    C151   O153      0.62134      .   S
    Zr15   O153      1.60603      .   S
    C154   O155      0.64294      .   S
    Zr27   O155      1.64046      .   S
    C154   O156      0.62158      .   S
    Zr9    O156      1.60638      .   S
    C157   O158      0.64309      .   S
    Zr29   O158      1.64125  1_565   S
    C157   O159      0.62151      .   S
    Zr5    O159      1.60563      .   S
    C160   O161      0.64270      .   S
    Zr15   O161      1.60166      .   S
    C160   O162      0.63162      .   S
    Zr19   O162      1.58514  1_455   S
    C163   O164      0.63105      .   S
    Zr29   O164      1.58424      .   S
    C163   O165      0.64229  1_565   S
    Zr5    O165      1.60022      .   S
    C166   O167      0.64239      .   S
    Zr5    O167      1.60066      .   S
    C166   O168      0.63168      .   S
    Zr21   O168      1.58556      .   S
    C169   O170      0.62149      .   S
    Zr3    O170      1.60589      .   S
    C169   O171      0.64322      .   S
    Zr27   O171      1.64134      .   S
    C172   O173      0.67696      .   S
    Zr3    O173      1.66441      .   S
    C172   O174      0.64940      .   S
    Zr19   O174      1.64201      .   S
    C175   O176      0.62142      .   S
    Zr5    O176      1.60569      .   S
    C175   O177      0.64314      .   S
    Zr21   O177      1.64176      .   S
    C178   O179      0.64178      .   S
    Zr9    O179      1.59948      .   S
    C178   O180      0.63199      .   S
    Zr27   O180      1.58663      .   S
    C181   O182      0.63120      .   S
    Zr27   O182      1.58441      .   S
    C181   O183      0.64225      .   S
    Zr3    O183      1.60036      .   S
    C184   O185      0.64259      .   S
    Zr9    O185      1.60104      .   S
    C184   O186      0.63156      .   S
    Zr21   O186      1.58484      .   S
    C187   O188      0.64217      .   S
    Zr21   O188      1.63905      .   S
    C187   O189      0.62139      .   S
    Zr9    O189      1.60617      .   S
    C190   O191      0.64184  1_545   S
    Zr15   O191      1.59969      .   S
    C190   O192      0.63205      .   S
    Zr29   O192      1.58676  1_565   S
    C193   O194      0.64265      .   S
    Zr3    O194      1.60148      .   S
    C193   O195      0.63167      .   S
    Zr19   O195      1.58554      .   S
    C196   O197      0.62157      .   S
    Zr15   O197      1.60645      .   S
    C196   O198      0.64308      .   S
    Zr29   O198      1.64074      .   S
    C199   O200      0.64240      .   S
    Zr17   O200      1.63978  1_455   S
    C199   O201      0.62132      .   S
    Zr13   O201      1.60580      .   S
    C202   O203      0.67704      .   S
    Zr1    O203      1.66473      .   S
    C202   O204      0.64915      .   S
    Zr17   O204      1.64124      .   S
    C205   O206      0.64271      .   S
    Zr7    O206      1.60156      .   S
    C205   O207      0.63160      .   S
    Zr23   O207      1.58533      .   S
    C208   O209      0.62157      .   S
    Zr1    O209      1.60615      .   S
    C208   O210      0.64310      .   S
    Zr25   O210      1.64114      .   S
    C211   O212      0.62128      .   S
    Zr7    O212      1.60558      .   S
    C211   O213      0.64290      .   S
    Zr23   O213      1.64106      .   S
    C214   O215      0.64288      .   S
    Zr31   O215      1.64049      .   S
    C214   O216      0.62149      .   S
    Zr13   O216      1.60600      .   S
    C217   O218      0.63169      .   S
    Zr31   O218      1.58543      .   S
    C217   O219      0.64191      .   S
    Zr7    O219      1.59969      .   S
    C220   O221      0.64241      .   S
    Zr23   O221      1.63982      .   S
    C220   O222      0.62125      .   S
    Zr11   O222      1.60569      .   S
    C223   O224      0.62156      .   S
    Zr7    O224      1.60614      .   S
    C223   O225      0.64324      .   S
    Zr31   O225      1.64134      .   S
    C226   O227      0.64268      .   S
    Zr1    O227      1.60140      .   S
    C226   O228      0.63161      .   S
    Zr17   O228      1.58532      .   S
    C229   O230      0.64309      .   S
    Zr25   O230      1.64091  1_545   S
    C229   O231      0.62149      .   S
    Zr11   O231      1.60601      .   S
    C232   O233      0.64214      .   S
    Zr13   O233      1.60024      .   S
    C232   O234      0.63150      .   S
    Zr31   O234      1.58557      .   S
    C235   O236      0.64194  1_565   S
    Zr1    O236      1.59970      .   S
    C235   O237      0.63159      .   S
    Zr25   O237      1.58533  1_545   S
    C238   O239      0.64218  1_545   S
    Zr11   O239      1.60029      .   S
    C238   O240      0.63158      .   S
    Zr25   O240      1.58574      .   S
    C241   O242      0.64257      .   S
    Zr11   O242      1.60136      .   S
    C241   O243      0.63164      .   S
    Zr23   O243      1.58521      .   S
    C244   O245      0.64257      .   S
    Zr13   O245      1.60134      .   S
    C244   O246      0.63170      .   S
    Zr17   O246      1.58534  1_455   S
    C247   O248      0.64214      .   S
    Zr20   O248      1.63879      .   S
    C247   O249      0.62144      .   S
    Zr8    O249      1.60632      .   S
    C250   O251      0.62161      .   S
    Zr14   O251      1.60644      .   S
    C250   O252      0.64236      .   S
    Zr18   O252      1.63905  1_455   S
    C253   O254      0.63158      .   S
    Zr18   O254      1.58502  1_455   S
    C253   O255      0.64262      .   S
    Zr14   O255      1.60131      .   S
    C256   O257      0.64164      .   S
    Zr8    O257      1.59783      .   S
    C256   O258      0.63220      .   S
    Zr26   O258      1.58734      .   S
    C259   O260      0.62144      .   S
    Zr2    O260      1.60567      .   S
    C259   O261      0.64307      .   S
    Zr26   O261      1.64117      .   S
    C262   O263      0.64310      .   S
    Zr28   O263      1.64076      .   S
    C262   O264      0.62162      .   S
    Zr14   O264      1.60657      .   S
    C265   O266      0.62118      .   S
    Zr4    O266      1.60514      .   S
    C265   O267      0.64321      .   S
    Zr20   O267      1.64207      .   S
    C268   O269      0.63220      .   S
    Zr28   O269      1.58699  1_565   S
    C268   O270      0.64168  1_545   S
    Zr14   O270      1.59932      .   S
    C271   O272      0.62162      .   S
    Zr8    O272      1.60655      .   S
    C271   O273      0.64306      .   S
    Zr26   O273      1.64060      .   S
    C274   O275      0.64244  1_565   S
    Zr4    O275      1.60067      .   S
    C274   O276      0.63097      .   S
    Zr28   O276      1.58406      .   S
    C277   O278      0.64240      .   S
    Zr2    O278      1.60064      .   S
    C277   O279      0.63098      .   S
    Zr26   O279      1.58407      .   S
    C280   O281      0.64943      .   S
    Zr18   O281      1.64210      .   S
    C280   O282      0.67688      .   S
    Zr2    O282      1.66421      .   S
    C283   O284      0.63168      .   S
    Zr20   O284      1.58558      .   S
    C283   O285      0.64261      .   S
    Zr4    O285      1.60147      .   S
    C286   O287      0.63154      .   S
    Zr20   O287      1.58488      .   S
    C286   O288      0.64260      .   S
    Zr8    O288      1.60126      .   S
    C289   O290      0.63179      .   S
    Zr18   O290      1.58569      .   S
    C289   O291      0.64277      .   S
    Zr2    O291      1.60162      .   S
    C292   O293      0.62144      .   S
    Zr4    O293      1.60563      .   S
    C292   O294      0.64309      .   S
    Zr28   O294      1.64128  1_565   S
    C295   O296      0.88566      .   S
    Zr5    O296      2.57318      .   S
    C295   O297      0.69754      .   S
    Zr21   O297      2.33501      .   S
    C295   O298      0.89967      .   S
    N97    O298      0.93256      .   S
    C299   O300      0.89003      .   S
    Zr14   O300      2.54873      .   S
    C299   O301      0.68606      .   S
    Zr18   O301      2.29269  1_455   S
    C299   O302      0.89180      .   S
    N100   O302      0.86937      .   S
