# CIF file generated by openbabel 2.4.90, see http://openbabel.sf.net
data_I
_chemical_name_common ''
_cell_length_a 18.39
_cell_length_b 18.388
_cell_length_c 18.393
_cell_angle_alpha 60.437
_cell_angle_beta 60.428
_cell_angle_gamma 60.436
_space_group_name_H-M_alt 'P 1'
_space_group_name_Hall 'P 1'
loop_
    _symmetry_equiv_pos_as_xyz
    x,y,z
loop_
    _atom_site_label
    _atom_site_type_symbol
    _atom_site_fract_x
    _atom_site_fract_y
    _atom_site_fract_z
    _atom_site_occupancy
    Zr0     Zr   0.38017   0.20697   0.20703   1.000
    Zr1     Zr   0.20697   0.38015   0.20696   1.000
    Zr2     Zr   0.20704   0.20697   0.38011   1.000
    Zr3     Zr   0.20596   0.20605   0.20601   1.000
    Zr4     Zr   0.79302   0.61985   0.79302   1.000
    Zr5     Zr   0.61982   0.79303   0.79290   1.000
    Zr6     Zr   0.79295   0.79303   0.61987   1.000
    Zr7     Zr   0.79403   0.79395   0.79397   1.000
    Zr8     Zr   0.38914   0.11178   0.38909   1.000
    Zr9     Zr   0.11089   0.38840   0.11102   1.000
    Zr10    Zr   0.38911   0.38909   0.11180   1.000
    Zr11    Zr   0.11093   0.11103   0.38837   1.000
    Zr12    Zr   0.38846   0.11098   0.11100   1.000
    Zr13    Zr   0.11179   0.38911   0.38907   1.000
    Zr14    Zr   0.88820   0.61089   0.61091   1.000
    Zr15    Zr   0.61153   0.88902   0.88899   1.000
    Zr16    Zr   0.61088   0.61091   0.88818   1.000
    Zr17    Zr   0.88906   0.88897   0.61161   1.000
    Zr18    Zr   0.88909   0.61159   0.88896   1.000
    Zr19    Zr   0.61086   0.88823   0.61089   1.000
    Zr20    Zr   0.24989   0.24988   0.24987   1.000
    Zr21    Zr   0.75010   0.75012   0.75011   1.000
    Zr22    Zr   0.42860   0.13416   0.30540   1.000
    Zr23    Zr   0.13344   0.42783   0.13350   1.000
    Zr24    Zr   0.30547   0.13391   0.42853   1.000
    Zr25    Zr   0.13253   0.30472   0.13273   1.000
    Zr26    Zr   0.42856   0.30543   0.13419   1.000
    Zr27    Zr   0.13250   0.13279   0.30471   1.000
    Zr28    Zr   0.30544   0.42855   0.13389   1.000
    Zr29    Zr   0.13351   0.13351   0.42777   1.000
    Zr30    Zr   0.42791   0.13344   0.13355   1.000
    Zr31    Zr   0.13409   0.30545   0.42851   1.000
    Zr32    Zr   0.30478   0.13266   0.13268   1.000
    Zr33    Zr   0.13402   0.42857   0.30543   1.000
    Zr34    Zr   0.86598   0.57143   0.69456   1.000
    Zr35    Zr   0.57208   0.86656   0.86643   1.000
    Zr36    Zr   0.86590   0.69455   0.57147   1.000
    Zr37    Zr   0.69521   0.86733   0.86730   1.000
    Zr38    Zr   0.69454   0.57146   0.86608   1.000
    Zr39    Zr   0.86749   0.86721   0.69527   1.000
    Zr40    Zr   0.57142   0.69457   0.86580   1.000
    Zr41    Zr   0.86648   0.86649   0.57220   1.000
    Zr42    Zr   0.86654   0.57216   0.86648   1.000
    Zr43    Zr   0.69452   0.86610   0.57144   1.000
    Zr44    Zr   0.86746   0.69528   0.86724   1.000
    Zr45    Zr   0.57139   0.86583   0.69453   1.000
    O46     O    0.34662   0.12182   0.12184   1.000
    O47     O    0.40819   0.12221   0.12227   1.000
    O48     O    0.12171   0.34656   0.12187   1.000
    O49     O    0.12217   0.40812   0.12226   1.000
    O50     O    0.34728   0.40882   0.12284   1.000
    O51     O    0.40884   0.34726   0.12299   1.000
    O52     O    0.25537   0.16936   0.16934   1.000
    O53     O    0.16925   0.25538   0.16937   1.000
    O54     O    0.17020   0.40399   0.17023   1.000
    O55     O    0.40404   0.17021   0.17029   1.000
    O56     O    0.25621   0.40435   0.17042   1.000
    O57     O    0.40437   0.25620   0.17061   1.000
    O58     O    0.16923   0.16942   0.25536   1.000
    O59     O    0.22843   0.31501   0.22841   1.000
    O60     O    0.17050   0.40436   0.25619   1.000
    O61     O    0.40438   0.17057   0.25621   1.000
    O62     O    0.22846   0.22843   0.31499   1.000
    O63     O    0.12171   0.12191   0.34654   1.000
    O64     O    0.40887   0.12297   0.34724   1.000
    O65     O    0.12291   0.40884   0.34725   1.000
    O66     O    0.17028   0.17024   0.40394   1.000
    O67     O    0.17056   0.25621   0.40431   1.000
    O68     O    0.25626   0.17044   0.40432   1.000
    O69     O    0.12222   0.12227   0.40807   1.000
    O70     O    0.12294   0.34728   0.40879   1.000
    O71     O    0.34731   0.12284   0.40881   1.000
    O72     O    0.65269   0.87716   0.59116   1.000
    O73     O    0.74374   0.82956   0.59565   1.000
    O74     O    0.87705   0.65272   0.59119   1.000
    O75     O    0.82943   0.74379   0.59567   1.000
    O76     O    0.87777   0.87773   0.59190   1.000
    O77     O    0.82972   0.82976   0.59603   1.000
    O78     O    0.59112   0.87703   0.65271   1.000
    O79     O    0.87709   0.59116   0.65273   1.000
    O80     O    0.87827   0.87809   0.65344   1.000
    O81     O    0.77153   0.77157   0.68499   1.000
    O82     O    0.59561   0.82943   0.74372   1.000
    O83     O    0.82950   0.59564   0.74379   1.000
    O84     O    0.83076   0.83058   0.74462   1.000
    O85     O    0.77156   0.68498   0.77156   1.000
    O86     O    0.59562   0.74380   0.82935   1.000
    O87     O    0.59595   0.82979   0.82966   1.000
    O88     O    0.74378   0.59565   0.82955   1.000
    O89     O    0.82978   0.59601   0.82975   1.000
    O90     O    0.83075   0.74462   0.83060   1.000
    O91     O    0.74462   0.83064   0.83063   1.000
    O92     O    0.59115   0.65274   0.87699   1.000
    O93     O    0.65271   0.59119   0.87713   1.000
    O94     O    0.59181   0.87779   0.87771   1.000
    O95     O    0.87781   0.59188   0.87772   1.000
    O96     O    0.87828   0.65344   0.87810   1.000
    O97     O    0.65337   0.87817   0.87814   1.000
    O98     O    0.31503   0.22842   0.22845   1.000
    O99     O    0.22793   0.22796   0.22794   1.000
    O100    O    0.68496   0.77158   0.77150   1.000
    O101    O    0.77207   0.77204   0.77204   1.000
    N102    N    0.50000   0.99999   0.99999   1.000
    O103    O    0.45862   0.04115   0.04116   1.000
    O104    O    0.54138   0.95884   0.95883   1.000
    N105    N    0.99999   0.50000   0.99999   1.000
    O106    O    0.04112   0.45859   0.04117   1.000
    O107    O    0.95887   0.54140   0.95881   1.000
    N108    N    0.50000   0.00000   0.49999   1.000
    O109    O    0.45889   0.04146   0.45886   1.000
    O110    O    0.54111   0.95854   0.54112   1.000
    N111    N    0.49999   0.50000   0.99999   1.000
    O112    O    0.54111   0.54113   0.95852   1.000
    O113    O    0.45888   0.45887   0.04147   1.000
    N114    N    1.00000   0.50000   0.49998   1.000
    O115    O    0.95853   0.54112   0.54112   1.000
    O116    O    0.04147   0.45888   0.45885   1.000
    N117    N    0.99999   0.00000   0.49998   1.000
    O118    O    0.95886   0.95883   0.54140   1.000
    O119    O    0.04113   0.04118   0.45857   1.000
loop_
    _geom_bond_atom_site_label_1
    _geom_bond_atom_site_label_2
    _geom_bond_distance
    _geom_bond_site_symmetry_2
    _ccdc_geom_bond_type
    Zr12   O46       0.63872      .   S
    Zr32   O46       0.63872      .   S
    Zr12   O47       0.63850      .   S
    Zr30   O47       0.63850      .   S
    Zr9    O48       0.63872      .   S
    Zr25   O48       0.63872      .   S
    Zr9    O49       0.63842      .   S
    Zr23   O49       0.63842      .   S
    Zr10   O50       0.63854      .   S
    Zr28   O50       0.63854      .   S
    Zr10   O51       0.63850      .   S
    Zr26   O51       0.63850      .   S
    Zr32   O52       0.98732      .   S
    Zr3    O52       0.98732      .   S
    Zr25   O53       0.98713      .   S
    Zr3    O53       0.98713      .   S
    Zr23   O54       0.98579      .   S
    Zr1    O54       0.98579      .   S
    Zr30   O55       0.98565      .   S
    Zr0    O55       0.98565      .   S
    Zr28   O56       0.98559      .   S
    Zr1    O56       0.98559      .   S
    Zr26   O57       0.98548      .   S
    Zr0    O57       0.98548      .   S
    Zr3    O58       0.98705      .   S
    Zr27   O58       0.98705      .   S
    Zr1    O59       0.98331      .   S
    Zr20   O59       0.98331      .   S
    Zr1    O60       0.98575      .   S
    Zr33   O60       0.98575      .   S
    Zr0    O61       0.98527      .   S
    Zr22   O61       0.98527      .   S
    Zr20   O62       0.98326      .   S
    Zr2    O62       0.98326      .   S
    Zr27   O63       0.63871      .   S
    Zr11   O63       0.63871      .   S
    Zr22   O64       0.63885      .   S
    Zr8    O64       0.63885      .   S
    Zr33   O65       0.63850      .   S
    Zr13   O65       0.63850      .   S
    Zr2    O66       0.98558      .   S
    Zr29   O66       0.98558      .   S
    Zr2    O67       0.98563      .   S
    Zr31   O67       0.98563      .   S
    Zr2    O68       0.98562      .   S
    Zr24   O68       0.98562      .   S
    Zr11   O69       0.63845      .   S
    Zr29   O69       0.63845      .   S
    Zr13   O70       0.63852      .   S
    Zr31   O70       0.63852      .   S
    Zr8    O71       0.63853      .   S
    Zr24   O71       0.63853      .   S
    Zr43   O72       0.63855      .   S
    Zr19   O72       0.63855      .   S
    Zr43   O73       0.98566      .   S
    Zr6    O73       0.98566      .   S
    Zr36   O74       0.63851      .   S
    Zr14   O74       0.63851      .   S
    Zr36   O75       0.98564      .   S
    Zr6    O75       0.98564      .   S
    Zr41   O76       0.63854      .   S
    Zr17   O76       0.63854      .   S
    Zr41   O77       0.98557      .   S
    Zr6    O77       0.98557      .   S
    Zr19   O78       0.63850      .   S
    Zr45   O78       0.63850      .   S
    Zr14   O79       0.63857      .   S
    Zr34   O79       0.63857      .   S
    Zr17   O80       0.63871      .   S
    Zr39   O80       0.63871      .   S
    Zr6    O81       0.98326      .   S
    Zr21   O81       0.98326      .   S
    Zr45   O82       0.98526      .   S
    Zr5    O82       0.98526      .   S
    Zr34   O83       0.98569      .   S
    Zr4    O83       0.98569      .   S
    Zr39   O84       0.98705      .   S
    Zr7    O84       0.98705      .   S
    Zr21   O85       0.98331      .   S
    Zr4    O85       0.98331      .   S
    Zr5    O86       0.98549      .   S
    Zr40   O86       0.98549      .   S
    Zr5    O87       0.98601      .   S
    Zr35   O87       0.98601      .   S
    Zr4    O88       0.98560      .   S
    Zr38   O88       0.98560      .   S
    Zr4    O89       0.98568      .   S
    Zr42   O89       0.98568      .   S
    Zr7    O90       0.98710      .   S
    Zr44   O90       0.98710      .   S
    Zr7    O91       0.98729      .   S
    Zr37   O91       0.98729      .   S
    Zr40   O92       0.63849      .   S
    Zr16   O92       0.63849      .   S
    Zr38   O93       0.63854      .   S
    Zr16   O93       0.63854      .   S
    Zr35   O94       0.63853      .   S
    Zr15   O94       0.63853      .   S
    Zr42   O95       0.63849      .   S
    Zr18   O95       0.63849      .   S
    Zr44   O96       0.63873      .   S
    Zr18   O96       0.63873      .   S
    Zr37   O97       0.63871      .   S
    Zr15   O97       0.63871      .   S
    Zr20   O98       0.98338      .   S
    Zr0    O98       0.98338      .   S
    Zr20   O99       0.98496      .   S
    Zr3    O99       0.98496      .   S
    Zr21   O100      0.98337      .   S
    Zr5    O100      0.98337      .   S
    Zr21   O101      0.98497      .   S
    Zr7    O101      0.98497      .   S
    N102   O103      1.07403  1_566   S
    Zr12   O103      1.82214      .   S
    N102   O104      1.07401      .   S
    Zr15   O104      1.82209      .   S
    N105   O106      1.07397  1_656   S
    Zr9    O106      1.82199      .   S
    N105   O107      1.07397      .   S
    Zr18   O107      1.82203      .   S
    N108   O109      1.07313      .   S
    Zr8    O109      1.82068      .   S
    N108   O110      1.07314  1_545   S
    Zr19   O110      1.82068      .   S
    N111   O112      1.07306      .   S
    Zr16   O112      1.82057      .   S
    N111   O113      1.07307  1_556   S
    Zr10   O113      1.82057      .   S
    N114   O115      1.07325      .   S
    Zr14   O115      1.82087      .   S
    N114   O116      1.07308  1_655   S
    Zr13   O116      1.82071      .   S
    N117   O118      1.07385  1_545   S
    Zr17   O118      1.82184      .   S
    N117   O119      1.07385  1_655   S
    Zr11   O119      1.82184      .   S
