# CIF file generated by openbabel 2.4.90, see http://openbabel.sf.net
data_I
_chemical_name_common ''
_cell_length_a 17.005
_cell_length_b 18.735
_cell_length_c 19.368
_cell_angle_alpha 90.005
_cell_angle_beta 90.013
_cell_angle_gamma 101.51
_space_group_name_H-M_alt 'P 1'
_space_group_name_Hall 'P 1'
loop_
    _symmetry_equiv_pos_as_xyz
    x,y,z
loop_
    _atom_site_label
    _atom_site_type_symbol
    _atom_site_fract_x
    _atom_site_fract_y
    _atom_site_fract_z
    _atom_site_occupancy
    Zr0     Zr   0.15255   0.99309   0.05731   1.000
    Zr1     Zr   0.65251   0.99308   0.05730   1.000
    Zr2     Zr   0.34732   0.50697   0.55731   1.000
    Zr3     Zr   0.84729   0.50694   0.55731   1.000
    Zr4     Zr   0.34732   0.00694   0.94280   1.000
    Zr5     Zr   0.84736   0.00692   0.94280   1.000
    Zr6     Zr   0.15253   0.49305   0.44279   1.000
    Zr7     Zr   0.65256   0.49307   0.44279   1.000
    N8      N    0.79076   0.24280   0.28722   1.000
    O9      O    0.73833   0.14136   0.19051   1.000
    O10     O    0.80345   0.36064   0.39535   1.000
    O11     O    0.75477   0.35717   0.36672   1.000
    O12     O    0.83054   0.35128   0.40534   1.000
    N13     N    0.96760   0.77328   0.33902   1.000
    O14     O    0.92018   0.66457   0.42980   1.000
    O15     O    0.05020   0.86468   0.22057   1.000
    N16     N    0.46761   0.77329   0.33900   1.000
    O17     O    0.42021   0.66458   0.42979   1.000
    O18     O    0.55019   0.86468   0.22055   1.000
    N19     N    0.46756   0.27328   0.16078   1.000
    O20     O    0.42019   0.16456   0.07015   1.000
    O21     O    0.55019   0.36467   0.27939   1.000
    N22     N    0.96755   0.27326   0.16077   1.000
    O23     O    0.92019   0.16454   0.07014   1.000
    O24     O    0.05018   0.36466   0.27938   1.000
    N25     N    0.29077   0.24284   0.28726   1.000
    O26     O    0.23836   0.14140   0.19054   1.000
    O27     O    0.30347   0.36068   0.39537   1.000
    O28     O    0.25477   0.35720   0.36674   1.000
    O29     O    0.33056   0.35131   0.40537   1.000
    N30     N    0.03226   0.22671   0.66107   1.000
    O31     O    0.07965   0.33542   0.57029   1.000
    O32     O    0.94970   0.13531   0.77953   1.000
    N33     N    0.53227   0.22669   0.66109   1.000
    O34     O    0.57965   0.33541   0.57029   1.000
    O35     O    0.44970   0.13531   0.77954   1.000
    N36     N    0.29076   0.74281   0.21286   1.000
    O37     O    0.23834   0.64137   0.30956   1.000
    O38     O    0.30345   0.86064   0.10474   1.000
    O39     O    0.25476   0.85718   0.13337   1.000
    O40     O    0.33055   0.85129   0.09475   1.000
    N41     N    0.79079   0.74283   0.21286   1.000
    O42     O    0.73837   0.64139   0.30956   1.000
    O43     O    0.80350   0.86066   0.10474   1.000
    O44     O    0.75478   0.85720   0.13337   1.000
    O45     O    0.83058   0.85129   0.09475   1.000
    N46     N    0.20911   0.25721   0.78720   1.000
    O47     O    0.26154   0.35866   0.69051   1.000
    O48     O    0.19640   0.13936   0.89532   1.000
    O49     O    0.24510   0.14282   0.86669   1.000
    O50     O    0.16933   0.14874   0.90533   1.000
    N51     N    0.70910   0.25720   0.78719   1.000
    O52     O    0.76151   0.35864   0.69051   1.000
    O53     O    0.69639   0.13935   0.89517   1.000
    O54     O    0.74511   0.14282   0.86655   1.000
    O55     O    0.66931   0.14873   0.90532   1.000
    N56     N    0.53232   0.72675   0.83900   1.000
    O57     O    0.57968   0.83546   0.92980   1.000
    O58     O    0.44971   0.63536   0.72055   1.000
    N59     N    0.03233   0.72675   0.83899   1.000
    O60     O    0.07970   0.83547   0.92979   1.000
    O61     O    0.94970   0.63535   0.72054   1.000
    N62     N    0.20911   0.75719   0.71286   1.000
    O63     O    0.26154   0.85863   0.80957   1.000
    O64     O    0.19637   0.63933   0.60475   1.000
    O65     O    0.24507   0.64281   0.63338   1.000
    O66     O    0.16931   0.64872   0.59473   1.000
    N67     N    0.70912   0.75721   0.71286   1.000
    O68     O    0.76155   0.85865   0.80957   1.000
    O69     O    0.69640   0.63936   0.60474   1.000
    O70     O    0.74509   0.64283   0.63337   1.000
    O71     O    0.66933   0.64874   0.59473   1.000
loop_
    _geom_bond_atom_site_label_1
    _geom_bond_atom_site_label_2
    _geom_bond_distance
    _geom_bond_site_symmetry_2
    _ccdc_geom_bond_type
    N8     O9        2.69016      .   S
    Zr1    O9        3.85794  1_565   S
    N8     O10       3.01917      .   S
    Zr3    O10       4.13406      .   S
    N8     O11       2.80357      .   S
    Zr7    O11       3.66611      .   S
    N8     O12       3.04490      .   S
    Zr3    O12       4.11297      .   S
    N13    O14       2.69001      .   S
    Zr3    O14       3.85984      .   S
    N13    O15       3.03489  1_655   S
    Zr0    O15       4.14088      .   S
    N16    O17       2.68996      .   S
    Zr2    O17       3.85975      .   S
    N16    O18       3.03466      .   S
    Zr1    O18       4.14066      .   S
    N19    O20       2.68755      .   S
    Zr4    O20       3.85703  1_556   S
    N19    O21       3.03658      .   S
    Zr7    O21       4.14215      .   S
    N22    O23       2.68743      .   S
    Zr5    O23       3.85671  1_556   S
    N22    O24       3.03666  1_655   S
    Zr6    O24       4.14228      .   S
    N25    O26       2.69033      .   S
    Zr0    O26       3.85831  1_565   S
    N25    O27       3.01902      .   S
    Zr2    O27       4.13359      .   S
    N25    O28       2.80333      .   S
    Zr6    O28       3.66564      .   S
    N25    O29       3.04490      .   S
    Zr2    O29       4.11236      .   S
    N30    O31       2.68976      .   S
    Zr6    O31       3.85979      .   S
    N30    O32       3.03489  1_455   S
    Zr5    O32       4.14087      .   S
    N33    O34       2.69006      .   S
    Zr7    O34       3.86018      .   S
    N33    O35       3.03463      .   S
    Zr4    O35       4.14078      .   S
    N36    O37       2.69067      .   S
    Zr6    O37       3.85919      .   S
    N36    O38       3.01922      .   S
    Zr4    O38       4.13436  1_546   S
    N36    O39       2.80358      .   S
    Zr0    O39       3.66604      .   S
    N36    O40       3.04523      .   S
    Zr4    O40       4.11292  1_546   S
    N41    O42       2.69070      .   S
    Zr7    O42       3.85932      .   S
    N41    O43       3.01914      .   S
    Zr5    O43       4.13399  1_546   S
    N41    O44       2.80354      .   S
    Zr1    O44       3.66633      .   S
    N41    O45       3.04508      .   S
    Zr5    O45       4.11266  1_546   S
    N46    O47       2.69049      .   S
    Zr2    O47       3.85877      .   S
    N46    O48       3.01947      .   S
    Zr0    O48       4.13479  1_564   S
    N46    O49       2.80373      .   S
    Zr4    O49       3.66631      .   S
    N46    O50       3.04547      .   S
    Zr0    O50       4.11335  1_564   S
    N51    O52       2.69028      .   S
    Zr3    O52       3.85862      .   S
    N51    O53       3.01753      .   S
    Zr1    O53       4.13689  1_564   S
    N51    O54       2.80233      .   S
    Zr5    O54       3.66782      .   S
    N51    O55       3.04554      .   S
    Zr1    O55       4.11323  1_564   S
    N56    O57       2.68952      .   S
    Zr1    O57       3.85870  1_554   S
    N56    O58       3.03416      .   S
    Zr2    O58       4.13983      .   S
    N59    O60       2.68969      .   S
    Zr0    O60       3.85909  1_554   S
    N59    O61       3.03426  1_455   S
    Zr3    O61       4.13997      .   S
    N62    O63       2.69029      .   S
    Zr4    O63       3.85820  1_545   S
    N62    O64       3.01912      .   S
    Zr6    O64       4.13374      .   S
    N62    O65       2.80327      .   S
    Zr2    O65       3.66576      .   S
    N62    O66       3.04501      .   S
    Zr6    O66       4.11254      .   S
    N67    O68       2.69020      .   S
    Zr5    O68       3.85800  1_545   S
    N67    O69       3.01912      .   S
    Zr7    O69       4.13391      .   S
    N67    O70       2.80346      .   S
    Zr3    O70       3.66587      .   S
    N67    O71       3.04506      .   S
    Zr7    O71       4.11261      .   S
