# CIF file generated by openbabel 2.4.90, see http://openbabel.sf.net
data_I
_chemical_name_common ''
_cell_length_a 17.434
_cell_length_b 12.841
_cell_length_c 17.875
_cell_angle_alpha 90.002
_cell_angle_beta 89.998
_cell_angle_gamma 112.94
_space_group_name_H-M_alt 'P 1'
_space_group_name_Hall 'P 1'
loop_
    _symmetry_equiv_pos_as_xyz
    x,y,z
loop_
    _atom_site_label
    _atom_site_type_symbol
    _atom_site_fract_x
    _atom_site_fract_y
    _atom_site_fract_z
    _atom_site_occupancy
    H0      H    0.28925   0.65175   0.80430   1.000
    H1      H    0.78925   0.65175   0.80430   1.000
    H2      H    0.18579   0.46305   0.76612   1.000
    H3      H    0.68579   0.46305   0.76612   1.000
    H4      H    0.32823   0.47985   0.56535   1.000
    H5      H    0.82823   0.47985   0.56535   1.000
    H6      H    0.42957   0.66653   0.60358   1.000
    H7      H    0.92957   0.66653   0.60358   1.000
    H8      H    0.19292   0.38310   0.52805   1.000
    H9      H    0.69292   0.38310   0.52805   1.000
    H10     H    0.24727   0.30115   0.56162   1.000
    H11     H    0.74727   0.30115   0.56162   1.000
    H12     H    0.41303   0.81549   0.83322   1.000
    H13     H    0.91303   0.81549   0.83322   1.000
    H14     H    0.47697   0.74009   0.80941   1.000
    H15     H    0.97697   0.74009   0.80941   1.000
    H16     H    0.46075   0.34823   0.30400   1.000
    H17     H    0.96075   0.34823   0.30400   1.000
    H18     H    0.06422   0.53692   0.26611   1.000
    H19     H    0.56422   0.53692   0.26611   1.000
    H20     H    0.42178   0.52011   0.06535   1.000
    H21     H    0.92178   0.52011   0.06535   1.000
    H22     H    0.32044   0.33344   0.10358   1.000
    H23     H    0.82044   0.33344   0.10358   1.000
    H24     H    0.05708   0.61686   0.02804   1.000
    H25     H    0.55708   0.61686   0.02800   1.000
    H26     H    0.00274   0.69882   0.06162   1.000
    H27     H    0.50273   0.69882   0.06162   1.000
    H28     H    0.33698   0.18448   0.33321   1.000
    H29     H    0.83698   0.18448   0.33321   1.000
    H30     H    0.27305   0.25988   0.30942   1.000
    H31     H    0.77305   0.25988   0.30942   1.000
    H32     H    0.21075   0.34820   0.19570   1.000
    H33     H    0.71075   0.34820   0.19570   1.000
    H34     H    0.31422   0.53690   0.23388   1.000
    H35     H    0.81422   0.53690   0.23388   1.000
    H36     H    0.17178   0.52011   0.43465   1.000
    H37     H    0.67178   0.52011   0.43465   1.000
    H38     H    0.07043   0.33344   0.39642   1.000
    H39     H    0.57043   0.33344   0.39642   1.000
    H40     H    0.30709   0.61686   0.47196   1.000
    H41     H    0.80709   0.61686   0.47196   1.000
    H42     H    0.25274   0.69881   0.43838   1.000
    H43     H    0.75274   0.69881   0.43838   1.000
    H44     H    0.08697   0.18447   0.16678   1.000
    H45     H    0.58697   0.18447   0.16678   1.000
    H46     H    0.02303   0.25987   0.19059   1.000
    H47     H    0.52303   0.25987   0.19059   1.000
    H48     H    0.03925   0.65173   0.69571   1.000
    H49     H    0.53925   0.65173   0.69571   1.000
    H50     H    0.43579   0.46303   0.73389   1.000
    H51     H    0.93579   0.46303   0.73389   1.000
    H52     H    0.07823   0.47985   0.93460   1.000
    H53     H    0.57823   0.47985   0.93460   1.000
    H54     H    0.17957   0.66652   0.89643   1.000
    H55     H    0.67957   0.66652   0.89643   1.000
    H56     H    0.44292   0.38310   0.97196   1.000
    H57     H    0.94292   0.38310   0.97196   1.000
    H58     H    0.49727   0.30114   0.93839   1.000
    H59     H    0.99727   0.30114   0.93839   1.000
    H60     H    0.16302   0.81548   0.66679   1.000
    H61     H    0.66302   0.81548   0.66679   1.000
    H62     H    0.22695   0.74008   0.69058   1.000
    H63     H    0.72695   0.74008   0.69058   1.000
    C64     C    0.98944   0.50790   0.76929   1.000
    C65     C    0.49819   0.45957   0.83700   1.000
    C66     C    0.99819   0.45957   0.83759   1.000
    C67     C    0.06761   0.51648   0.88287   1.000
    C68     C    0.36454   0.67191   0.70468   1.000
    C69     C    0.86454   0.67191   0.70468   1.000
    C70     C    0.29748   0.61390   0.75195   1.000
    C71     C    0.79748   0.61390   0.75195   1.000
    C72     C    0.23945   0.50792   0.73073   1.000
    C73     C    0.73945   0.50792   0.73073   1.000
    C74     C    0.24819   0.45958   0.66242   1.000
    C75     C    0.74819   0.45958   0.66242   1.000
    C76     C    0.31761   0.51649   0.61714   1.000
    C77     C    0.81761   0.51649   0.61714   1.000
    C78     C    0.37566   0.62228   0.63862   1.000
    C79     C    0.87566   0.62228   0.63862   1.000
    C80     C    0.19068   0.31880   0.56970   1.000
    C81     C    0.69068   0.31880   0.56970   1.000
    C82     C    0.45757   0.80812   0.79189   1.000
    C83     C    0.95757   0.80812   0.79189   1.000
    C84     C    0.38546   0.32806   0.20467   1.000
    C85     C    0.88546   0.32806   0.20467   1.000
    C86     C    0.45253   0.38608   0.25194   1.000
    C87     C    0.95253   0.38608   0.25194   1.000
    C88     C    0.01056   0.49205   0.23070   1.000
    C89     C    0.51056   0.49205   0.23070   1.000
    C90     C    0.00182   0.54039   0.16241   1.000
    C91     C    0.50182   0.54039   0.16241   1.000
    C92     C    0.43240   0.48348   0.11713   1.000
    C93     C    0.93239   0.48348   0.11713   1.000
    C94     C    0.37435   0.37769   0.13861   1.000
    C95     C    0.87435   0.37769   0.13861   1.000
    C96     C    0.05932   0.68117   0.06976   1.000
    C97     C    0.55932   0.68117   0.06976   1.000
    C98     C    0.29245   0.19185   0.29189   1.000
    C99     C    0.79244   0.19185   0.29189   1.000
    C100    C    0.13546   0.32805   0.29530   1.000
    C101    C    0.63546   0.32805   0.29530   1.000
    C102    C    0.20252   0.38606   0.24805   1.000
    C103    C    0.70252   0.38606   0.24805   1.000
    C104    C    0.26056   0.49203   0.26928   1.000
    C105    C    0.76056   0.49203   0.26928   1.000
    C106    C    0.25182   0.54037   0.33759   1.000
    C107    C    0.75182   0.54037   0.33759   1.000
    C108    C    0.18239   0.48347   0.38287   1.000
    C109    C    0.68239   0.48347   0.38287   1.000
    C110    C    0.12435   0.37768   0.36130   1.000
    C111    C    0.62434   0.37768   0.36130   1.000
    C112    C    0.30932   0.68116   0.43024   1.000
    C113    C    0.80932   0.68116   0.43024   1.000
    C114    C    0.04244   0.19184   0.20811   1.000
    C115    C    0.54243   0.19184   0.20811   1.000
    C116    C    0.11454   0.67190   0.79533   1.000
    C117    C    0.61454   0.67190   0.79533   1.000
    C118    C    0.04748   0.61388   0.74806   1.000
    C119    C    0.54748   0.61388   0.74806   1.000
    C120    C    0.48945   0.50790   0.76929   1.000
    C121    C    0.56761   0.51648   0.88287   1.000
    C122    C    0.12565   0.62227   0.86139   1.000
    C123    C    0.62565   0.62227   0.86139   1.000
    C124    C    0.44069   0.31879   0.93025   1.000
    C125    C    0.94068   0.31879   0.93020   1.000
    C126    C    0.20756   0.80811   0.70810   1.000
    C127    C    0.70756   0.80811   0.70810   1.000
    O128    O    0.18624   0.35747   0.64379   1.000
    O129    O    0.68624   0.35747   0.64379   1.000
    O130    O    0.06377   0.64250   0.14370   1.000
    O131    O    0.56377   0.64250   0.14370   1.000
    O132    O    0.31377   0.64248   0.35622   1.000
    O133    O    0.81377   0.64248   0.35622   1.000
    O134    O    0.43624   0.35745   0.85620   1.000
    O135    O    0.93624   0.35745   0.85620   1.000
loop_
    _geom_bond_atom_site_label_1
    _geom_bond_atom_site_label_2
    _geom_bond_distance
    _geom_bond_site_symmetry_2
    _ccdc_geom_bond_type
    H25    C97       1.10247      .   S
    H24    C96       1.10198      .   S
    H26    C96       1.10457      .   S
    H27    C97       1.10457      .   S
    H21    C93       1.08634      .   S
    H20    C92       1.08634      .   S
    C97    O131      1.42462      .   S
    C96    O130      1.42462      .   S
    H22    C94       1.08724      .   S
    H23    C95       1.08724      .   S
    C93    C95       1.39470      .   S
    C93    C90       1.40166  1_655   S
    C92    C94       1.39471      .   S
    C92    C91       1.40164      .   S
    C95    C85       1.39082      .   S
    C94    C84       1.39082      .   S
    O130   C90       1.37609      .   S
    O131   C91       1.37609      .   S
    C91    C89       1.40439      .   S
    C90    C88       1.40439      .   S
    H45    C115      1.10219      .   S
    H44    C114      1.10219      .   S
    H47    C115      1.09814      .   S
    H46    C114      1.09815      .   S
    H32    C102      1.08936      .   S
    H33    C103      1.08936      .   S
    C84    C86       1.39894      .   S
    C85    C87       1.39894      .   S
    C89    C86       1.39513      .   S
    C89    H19       1.08976      .   S
    C88    C87       1.39514  1_455   S
    C88    H18       1.08975      .   S
    H35    C105      1.08963      .   S
    H34    C104      1.08963      .   S
    C103   C105      1.39508      .   S
    C103   C101      1.39870      .   S
    C102   C104      1.39509      .   S
    C102   C100      1.39870      .   S
    C87    H17       1.08493      .   S
    C86    H16       1.08492      .   S
    C105   C107      1.40467      .   S
    C104   C106      1.40467      .   S
    C99    H31       1.09815      .   S
    C99    H29       1.10216      .   S
    C98    H30       1.09814      .   S
    C98    H28       1.10216      .   S
    C101   C111      1.38988      .   S
    C100   C110      1.38988      .   S
    C106   O132      1.37574      .   S
    C106   C108      1.40161      .   S
    C107   O133      1.37574      .   S
    C107   C109      1.40162      .   S
    O133   C113      1.42595      .   S
    O132   C112      1.42595      .   S
    C111   C109      1.39515      .   S
    C111   H39       1.08815      .   S
    C110   C108      1.39515      .   S
    C110   H38       1.08817      .   S
    C109   H37       1.08631      .   S
    C108   H36       1.08632      .   S
    C112   H42       1.10456      .   S
    C112   H40       1.10197      .   S
    C113   H43       1.10454      .   S
    C113   H41       1.10197      .   S
    H8     C80       1.10120      .   S
    H9     C81       1.10119      .   S
    H10    C80       1.10439      .   S
    H11    C81       1.10440      .   S
    H4     C76       1.08646      .   S
    H5     C77       1.08646      .   S
    C80    O128      1.42705      .   S
    C81    O129      1.42705      .   S
    H7     C79       1.08731      .   S
    H6     C78       1.08733      .   S
    C77    C79       1.39471      .   S
    C77    C75       1.40160      .   S
    C76    C78       1.39471      .   S
    C76    C74       1.40160      .   S
    C79    C69       1.39079      .   S
    C78    C68       1.39079      .   S
    O128   C74       1.37575      .   S
    O129   C75       1.37576      .   S
    C74    C72       1.40468      .   S
    C75    C73       1.40468      .   S
    H61    C127      1.10204      .   S
    H60    C126      1.10204      .   S
    H62    C126      1.09809      .   S
    H63    C127      1.09810      .   S
    H49    C119      1.08939      .   S
    H48    C118      1.08938      .   S
    C69    C71       1.39892      .   S
    C68    C70       1.39892      .   S
    C72    C70       1.39504      .   S
    C72    H2        1.08952      .   S
    C73    C71       1.39504      .   S
    C73    H3        1.08952      .   S
    H51    C64       1.08965      .   S
    H50    C120      1.08966      .   S
    C118   C64       1.39509  1_455   S
    C118   C116      1.39895      .   S
    C119   C120      1.39508      .   S
    C119   C117      1.39895      .   S
    C70    H0        1.08937      .   S
    C71    H1        1.08937      .   S
    C64    C66       1.40455      .   S
    C120   C65       1.39540      .   S
    C82    H14       1.09815      .   S
    C82    H12       1.10216      .   S
    C83    H15       1.09815      .   S
    C83    H13       1.10216      .   S
    C116   C122      1.39080      .   S
    C117   C123      1.39081      .   S
    C65    O134      1.37825      .   S
    C65    C121      1.40775      .   S
    C66    O135      1.37567      .   S
    C66    C67       1.40164  1_655   S
    O135   C125      1.42556      .   S
    O134   C124      1.42639      .   S
    C123   C121      1.39471      .   S
    C123   H55       1.08733      .   S
    C122   C67       1.39471      .   S
    C122   H54       1.08735      .   S
    C121   H53       1.08558      .   S
    C67    H52       1.08557      .   S
    C125   H59       1.10467      .   S
    C125   H57       1.10251      .   S
    C124   H58       1.10454      .   S
    C124   H56       1.10190      .   S
