# CIF file generated by openbabel 2.4.90, see http://openbabel.sf.net
data_I
_chemical_name_common ''
_cell_length_a 13.444
_cell_length_b 14.201
_cell_length_c 19.045
_cell_angle_alpha 90.774
_cell_angle_beta 108.294
_cell_angle_gamma 93.384
_space_group_name_H-M_alt 'P 1'
_space_group_name_Hall 'P 1'
loop_
    _symmetry_equiv_pos_as_xyz
    x,y,z
loop_
    _atom_site_label
    _atom_site_type_symbol
    _atom_site_fract_x
    _atom_site_fract_y
    _atom_site_fract_z
    _atom_site_occupancy
    Zr0     Zr   0.93087   0.46943   0.19495   1.000
    Zr1     Zr   0.47685   0.88782   0.58160   1.000
    Zr2     Zr   0.06908   0.53052   0.80500   1.000
    Zr3     Zr   0.52311   0.11212   0.41830   1.000
    N4      N    0.49998   0.50000   0.99998   1.000
    O5      O    0.67746   0.49169   0.07534   1.000
    O6      O    0.32250   0.50830   0.92461   1.000
    N7      N    0.23338   0.31818   0.54018   1.000
    O8      O    0.33314   0.13424   0.56698   1.000
    O9      O    0.17402   0.42550   0.65044   1.000
    O10     O    0.11308   0.36921   0.38855   1.000
    N11     N    0.17796   0.82133   0.31259   1.000
    O12     O    0.30724   0.94954   0.35577   1.000
    O13     O    0.31013   0.86305   0.41514   1.000
    O14     O    0.08007   0.67677   0.27025   1.000
    N15     N    0.68279   0.71102   0.94151   1.000
    O16     O    0.85576   0.63096   0.89528   1.000
    O17     O    0.58178   0.78508   0.79096   1.000
    N18     N    0.82201   0.17862   0.68737   1.000
    O19     O    0.91990   0.32317   0.72971   1.000
    O20     O    0.68984   0.13690   0.58481   1.000
    O21     O    0.69272   0.05041   0.64417   1.000
    N22     N    0.49996   0.49996   0.49998   1.000
    O23     O    0.50620   0.66071   0.53300   1.000
    O24     O    0.49375   0.33921   0.46695   1.000
    N25     N    0.76659   0.68179   0.45975   1.000
    O26     O    0.66683   0.86572   0.43294   1.000
    O27     O    0.88688   0.63075   0.61137   1.000
    O28     O    0.82594   0.57446   0.34950   1.000
    N29     N    0.31718   0.28896   0.05844   1.000
    O30     O    0.41818   0.21489   0.20898   1.000
    O31     O    0.14420   0.36902   0.10467   1.000
loop_
    _geom_bond_atom_site_label_1
    _geom_bond_atom_site_label_2
    _geom_bond_distance
    _geom_bond_site_symmetry_2
    _ccdc_geom_bond_type
    N4     O5        2.37799  1_556   S
    Zr0    O5        3.48860      .   S
    N4     O6        2.37801      .   S
    Zr2    O6        3.48865      .   S
    N7     O8        2.98360      .   S
    Zr1    O8        4.06744  1_565   S
    N7     O9        2.91188      .   S
    Zr2    O9        3.95174      .   S
    N7     O10       2.95681      .   S
    Zr0    O10       4.06252  1_655   S
    N11    O12       2.38763      .   S
    Zr3    O12       3.48366  1_545   S
    N11    O13       2.23356      .   S
    Zr1    O13       3.25788      .   S
    N11    O14       2.35932      .   S
    Zr0    O14       3.48323  1_655   S
    N15    O16       3.00763      .   S
    Zr2    O16       4.08994  1_455   S
    N15    O17       2.99620      .   S
    Zr1    O17       4.10923      .   S
    N18    O19       2.35922      .   S
    Zr2    O19       3.48317  1_455   S
    N18    O20       2.23368      .   S
    Zr3    O20       3.25869      .   S
    N18    O21       2.38781      .   S
    Zr1    O21       3.48386  1_565   S
    N22    O23       2.34925      .   S
    Zr1    O23       3.42238      .   S
    N22    O24       2.34945      .   S
    Zr3    O24       3.42247      .   S
    N25    O26       2.98348      .   S
    Zr3    O26       4.06711  1_545   S
    N25    O27       2.95670      .   S
    Zr2    O27       4.06292  1_455   S
    N25    O28       2.91170      .   S
    Zr0    O28       3.95159      .   S
    N29    O30       2.99608      .   S
    Zr3    O30       4.10878      .   S
    N29    O31       3.00762      .   S
    Zr0    O31       4.08994  1_655   S
