# CIF file generated by openbabel 2.4.90, see http://openbabel.sf.net
data_I
_chemical_name_common ''
_cell_length_a 13.315
_cell_length_b 14.537
_cell_length_c 14.537
_cell_angle_alpha 89.98
_cell_angle_beta 90.001
_cell_angle_gamma 90.016
_space_group_name_H-M_alt 'P 1'
_space_group_name_Hall 'P 1'
loop_
    _symmetry_equiv_pos_as_xyz
    x,y,z
loop_
    _atom_site_label
    _atom_site_type_symbol
    _atom_site_fract_x
    _atom_site_fract_y
    _atom_site_fract_z
    _atom_site_occupancy
    Zn0     Zn   0.49964   0.00000   0.50004   1.000
    Zn1     Zn   0.99976   0.00000   0.50004   1.000
    Zn2     Zn   0.49975   0.50001   0.99997   1.000
    H3      H    0.98341   0.19162   0.19570   1.000
    H4      H    0.86095   0.09356   0.28367   1.000
    H5      H    0.61748   0.25926   0.17671   1.000
    H6      H    0.73977   0.35269   0.08925   1.000
    H7      H    0.56695   0.07060   0.16768   1.000
    H8      H    0.77724   0.08420   0.46590   1.000
    H9      H    0.75773   0.19669   0.42284   1.000
    H10     H    0.67332   0.15092   0.50722   1.000
    H11     H    0.98341   0.80832   0.80432   1.000
    H12     H    0.86103   0.90640   0.71636   1.000
    H13     H    0.61743   0.74074   0.82331   1.000
    H14     H    0.73964   0.64727   0.91074   1.000
    H15     H    0.56706   0.92939   0.83239   1.000
    H16     H    0.77725   0.91588   0.53410   1.000
    H17     H    0.75770   0.80337   0.57715   1.000
    H18     H    0.67329   0.84915   0.49281   1.000
    H19     H    0.48358   0.69150   0.30492   1.000
    H20     H    0.36142   0.59314   0.21697   1.000
    H21     H    0.11755   0.75898   0.32278   1.000
    H22     H    0.23952   0.85279   0.41014   1.000
    H23     H    0.06776   0.56949   0.33244   1.000
    H24     H    0.27731   0.58449   0.03380   1.000
    H25     H    0.25787   0.69675   0.07743   1.000
    H26     H    0.17327   0.65138   0.99301   1.000
    H27     H    0.48359   0.30846   0.69511   1.000
    H28     H    0.36151   0.40684   0.78305   1.000
    H29     H    0.11751   0.24104   0.67723   1.000
    H30     H    0.23940   0.14720   0.58990   1.000
    H31     H    0.06791   0.43053   0.66753   1.000
    Zn32    Zn   0.99986   0.50000   0.99997   1.000
    H33     H    0.27732   0.41554   0.96620   1.000
    H34     H    0.25783   0.30328   0.92261   1.000
    H35     H    0.17323   0.34865   0.00000   1.000
    H36     H    0.98340   0.80444   0.19177   1.000
    H37     H    0.86105   0.71646   0.09368   1.000
    H38     H    0.61741   0.82318   0.25927   1.000
    H39     H    0.73959   0.91065   0.35274   1.000
    H40     H    0.56702   0.83232   0.07064   1.000
    H41     H    0.77740   0.53421   0.08413   1.000
    H42     H    0.75784   0.57713   0.19664   1.000
    H43     H    0.67348   0.49275   0.15085   1.000
    H44     H    0.98335   0.19567   0.80819   1.000
    H45     H    0.86106   0.28367   0.90625   1.000
    H46     H    0.61736   0.17685   0.74072   1.000
    H47     H    0.73949   0.08936   0.64728   1.000
    H48     H    0.56702   0.16772   0.92937   1.000
    H49     H    0.77737   0.46598   0.91572   1.000
    H50     H    0.75783   0.42295   0.80325   1.000
    H51     H    0.67345   0.50730   0.84898   1.000
    H52     H    0.48366   0.30486   0.30864   1.000
    H53     H    0.36142   0.21696   0.40702   1.000
    H54     H    0.11764   0.32291   0.24105   1.000
    H55     H    0.23969   0.41022   0.14723   1.000
    H56     H    0.06786   0.33253   0.43057   1.000
    H57     H    0.27718   0.03386   0.41564   1.000
    H58     H    0.25773   0.07750   0.30336   1.000
    H59     H    0.17309   0.99309   0.34870   1.000
    H60     H    0.48362   0.69522   0.69142   1.000
    H61     H    0.36142   0.78315   0.59307   1.000
    H62     H    0.11759   0.67713   0.75900   1.000
    H63     H    0.23960   0.58980   0.85280   1.000
    H64     H    0.06783   0.66752   0.56940   1.000
    H65     H    0.27716   0.96631   0.58450   1.000
    H66     H    0.25775   0.92258   0.69676   1.000
    H67     H    0.17309   0.00000   0.65143   1.000
    C68     C    0.94313   0.33807   0.08682   1.000
    C69     C    0.86903   0.27767   0.13680   1.000
    C70     C    0.90300   0.20502   0.19210   1.000
    C71     C    0.83523   0.15047   0.24087   1.000
    C72     C    0.73263   0.16983   0.23368   1.000
    C73     C    0.69708   0.24200   0.17925   1.000
    C74     C    0.76587   0.29535   0.13082   1.000
    C75     C    0.58065   0.06933   0.24113   1.000
    C76     C    0.65262   0.09757   0.37408   1.000
    C77     C    0.71919   0.13439   0.44661   1.000
    C78     C    0.94302   0.66186   0.91318   1.000
    C79     C    0.86897   0.72228   0.86321   1.000
    C80     C    0.90299   0.79492   0.80783   1.000
    C81     C    0.83526   0.84949   0.75916   1.000
    C82     C    0.73265   0.83015   0.76634   1.000
    C83     C    0.69704   0.75799   0.82077   1.000
    C84     C    0.76579   0.70460   0.86917   1.000
    C85     C    0.58075   0.93068   0.75894   1.000
    C86     C    0.65265   0.90246   0.62590   1.000
    C87     C    0.71918   0.86567   0.55341   1.000
    C88     C    0.44290   0.83822   0.41317   1.000
    C89     C    0.36897   0.77767   0.36300   1.000
    C90     C    0.40315   0.70486   0.30819   1.000
    C91     C    0.33556   0.65014   0.25953   1.000
    C92     C    0.23293   0.66947   0.26640   1.000
    C93     C    0.19718   0.74179   0.32047   1.000
    C94     C    0.26578   0.79534   0.36885   1.000
    C95     C    0.08131   0.56851   0.25897   1.000
    C96     C    0.15293   0.59736   0.12597   1.000
    C97     C    0.21928   0.63457   0.05346   1.000
    C98     C    0.44279   0.16172   0.58687   1.000
    C99     C    0.36892   0.22228   0.63684   1.000
    C100    C    0.40315   0.29510   0.69184   1.000
    C101    C    0.33561   0.34983   0.74050   1.000
    C102    C    0.23296   0.33053   0.73362   1.000
    C103    C    0.19715   0.25822   0.67956   1.000
    C104    C    0.26571   0.20465   0.63117   1.000
    C105    C    0.08143   0.43152   0.74101   1.000
    C106    C    0.15297   0.40267   0.87403   1.000
    C107    C    0.21928   0.36546   0.94657   1.000
    C108    C    0.94298   0.91321   0.33810   1.000
    C109    C    0.86893   0.86320   0.27778   1.000
    C110    C    0.90297   0.80790   0.20514   1.000
    C111    C    0.83527   0.75920   0.15058   1.000
    C112    C    0.73265   0.76632   0.16990   1.000
    C113    C    0.69703   0.82068   0.24200   1.000
    C114    C    0.76575   0.86913   0.29542   1.000
    C115    C    0.58075   0.75889   0.06934   1.000
    C116    C    0.65275   0.62594   0.09754   1.000
    C117    C    0.71932   0.55341   0.13433   1.000
    C118    C    0.94288   0.08682   0.66183   1.000
    C119    C    0.86886   0.13684   0.72221   1.000
    C120    C    0.90293   0.19220   0.79482   1.000
    C121    C    0.83525   0.24090   0.84937   1.000
    C122    C    0.73263   0.23377   0.83006   1.000
    C123    C    0.69698   0.17936   0.75794   1.000
    C124    C    0.76568   0.13092   0.70456   1.000
    C125    C    0.58075   0.24117   0.93064   1.000
    C126    C    0.65274   0.37414   0.90230   1.000
    C127    C    0.71930   0.44669   0.86554   1.000
    C128    C    0.44306   0.41314   0.16183   1.000
    C129    C    0.36910   0.36321   0.22241   1.000
    C130    C    0.40323   0.30817   0.29525   1.000
    C131    C    0.33559   0.25954   0.34998   1.000
    C132    C    0.23297   0.26647   0.33063   1.000
    C133    C    0.19726   0.32056   0.25828   1.000
    C134    C    0.26591   0.36892   0.20471   1.000
    C135    C    0.08135   0.25905   0.43156   1.000
    C136    C    0.15285   0.12604   0.40274   1.000
    C137    C    0.21915   0.05353   0.36550   1.000
    C138    C    0.44296   0.58689   0.83820   1.000
    C139    C    0.36903   0.63684   0.77760   1.000
    C140    C    0.40319   0.69190   0.70481   1.000
    C141    C    0.33557   0.74055   0.65010   1.000
    C142    C    0.23295   0.73361   0.66944   1.000
    C143    C    0.19722   0.67949   0.74179   1.000
    C144    C    0.26584   0.63112   0.79533   1.000
    C145    C    0.08133   0.74100   0.56851   1.000
    C146    C    0.15285   0.87404   0.59737   1.000
    C147    C    0.21915   0.94657   0.63459   1.000
    N148    N    0.52623   0.02651   0.30290   1.000
    N149    N    0.57192   0.04468   0.38662   1.000
    N150    N    0.66057   0.11414   0.28136   1.000
    N151    N    0.52633   0.97351   0.69719   1.000
    N152    N    0.57199   0.95537   0.61346   1.000
    N153    N    0.66063   0.88587   0.71868   1.000
    N154    N    0.02684   0.52581   0.19717   1.000
    N155    N    0.07233   0.54435   0.11343   1.000
    N156    N    0.16104   0.61361   0.21873   1.000
    N157    N    0.02697   0.47423   0.80270   1.000
    N158    N    0.07240   0.45569   0.88655   1.000
    N159    N    0.16111   0.38641   0.78128   1.000
    N160    N    0.52638   0.69713   0.02647   1.000
    N161    N    0.57210   0.61342   0.04460   1.000
    N162    N    0.66065   0.71865   0.11416   1.000
    N163    N    0.52639   0.30291   0.97349   1.000
    N164    N    0.57210   0.38664   0.95532   1.000
    N165    N    0.66065   0.28143   0.88500   1.000
    N166    N    0.02683   0.19725   0.47424   1.000
    N167    N    0.07225   0.11350   0.45572   1.000
    N168    N    0.16104   0.21880   0.38648   1.000
    N169    N    0.02682   0.80280   0.52584   1.000
    N170    N    0.07224   0.88657   0.54440   1.000
    N171    N    0.16103   0.78127   0.61360   1.000
    O172    O    0.90281   0.40369   0.03821   1.000
    O173    O    0.03517   0.32379   0.09433   1.000
    O174    O    0.90268   0.59616   0.96170   1.000
    O175    O    0.03507   0.67620   0.90570   1.000
    O176    O    0.40245   0.90387   0.46161   1.000
    O177    O    0.53493   0.82399   0.40580   1.000
    O178    O    0.40232   0.09601   0.53851   1.000
    O179    O    0.53483   0.17601   0.59417   1.000
    O180    O    0.90264   0.96174   0.40382   1.000
    O181    O    0.03502   0.90578   0.32380   1.000
    O182    O    0.90252   0.03830   0.59610   1.000
    O183    O    0.03492   0.09424   0.67610   1.000
    O184    O    0.40263   0.46158   0.09614   1.000
    O185    O    0.53509   0.40575   0.17607   1.000
    O186    O    0.40252   0.53844   0.90390   1.000
    O187    O    0.53500   0.59426   0.82394   1.000
loop_
    _geom_bond_atom_site_label_1
    _geom_bond_atom_site_label_2
    _geom_bond_distance
    _geom_bond_site_symmetry_2
    _ccdc_geom_bond_type
    H35    C107      1.01920  1_554   S
    N160   N161      1.38604      .   S
    N160   C115      1.31089      .   S
    H24    C97       1.09949      .   S
    O172   C68       1.30287      .   S
    O172   Zn32      1.98434  1_554   S
    N161   C116      1.33354      .   S
    N161   Zn2       2.01667  1_554   S
    C97    H25       1.09655      .   S
    C97    C96       1.47773      .   S
    C97    H26       1.09878  1_554   S
    C115   H40       1.08330      .   S
    C115   N162      1.37791      .   S
    H41    C117      1.09938      .   S
    C68    O173      1.24776  1_655   S
    C68    C69       1.50709      .   S
    H6     C74       1.08644      .   S
    H37    C111      1.09021      .   S
    O184   C128      1.30281      .   S
    O184   Zn2       1.98441  1_554   S
    C116   N162      1.37328      .   S
    C116   C117      1.47776      .   S
    N155   C96       1.33352      .   S
    N155   N154      1.38602      .   S
    N155   Zn32      2.01681  1_454   S
    N162   C112      1.43377      .   S
    C96    N156      1.37332      .   S
    C74    C69       1.40029      .   S
    C74    C73       1.39114      .   S
    C117   H43       1.09880      .   S
    C117   H42       1.09659      .   S
    C69    C70       1.40214      .   S
    H55    C134      1.08643      .   S
    C111   C112      1.39877      .   S
    C111   C110      1.39396      .   S
    C128   O185      1.24741      .   S
    C128   C129      1.50713      .   S
    H7     C75       1.08338      .   S
    C112   C113      1.39604      .   S
    H5     C73       1.08988      .   S
    C73    C72       1.39654      .   S
    H36    C110      1.08950      .   S
    C70    H3        1.08955      .   S
    C70    C71       1.39455      .   S
    N154   C95       1.31089      .   S
    C134   C129      1.40028      .   S
    C134   C133      1.39116      .   S
    C110   C109      1.40271      .   S
    H20    C91       1.09024      .   S
    N156   C95       1.37784      .   S
    N156   C92       1.43383      .   S
    C129   C130      1.40270      .   S
    C72    C71       1.39875      .   S
    C72    N150      1.43376      .   S
    C71    H4        1.09023      .   S
    H54    C133      1.08992      .   S
    C75    N150      1.37791      .   S
    C75    N148      1.31085      .   S
    C113   H38       1.09003      .   S
    C113   C114      1.39149      .   S
    C133   C132      1.39650      .   S
    C95    H23       1.08326      .   S
    C91    C92       1.39871      .   S
    C91    C90       1.39398      .   S
    C92    C93       1.39655      .   S
    C109   C114      1.40028      .   S
    C109   C108      1.50651      .   S
    N150   C76       1.37323      .   S
    C130   H52       1.08952      .   S
    C130   C131      1.39395      .   S
    C114   H39       1.08649      .   S
    N148   N149      1.38611      .   S
    H58    C137      1.09589      .   S
    H19    C90       1.08952      .   S
    C90    C89       1.40113      .   S
    C93    H21       1.08989      .   S
    C93    C94       1.39110      .   S
    O181   C108      1.24773  1_455   S
    C132   C131      1.39870      .   S
    C132   N168      1.43380      .   S
    C108   O180      1.30372      .   S
    H59    C137      1.09887  1_565   S
    C131   H53       1.09029      .   S
    C89    C94       1.40042      .   S
    C89    C88       1.50846      .   S
    C137   C136      1.47803      .   S
    C137   H57       1.09995      .   S
    C94    H22       1.08649      .   S
    C76    N149      1.33352      .   S
    C76    C77       1.47778      .   S
    N168   C136      1.37324      .   S
    N168   C135      1.37789      .   S
    N149   Zn0       2.01636      .   S
    C136   N167      1.33351      .   S
    O180   Zn1       1.98454  1_565   S
    O177   C88       1.24742      .   S
    C88    O176      1.30281      .   S
    H9     C77       1.09657      .   S
    H56    C135      1.08330      .   S
    C135   N166      1.31087      .   S
    C77    H8        1.09937      .   S
    C77    H10       1.09876      .   S
    N167   N166      1.38602      .   S
    N167   Zn1       2.01673  1_455   S
    O176   Zn0       1.98474  1_565   S
    H18    C87       1.09871      .   S
    Zn0    O178      1.98527      .   S
    Zn0    N152      2.01670  1_545   S
    Zn1    N170      2.01656  1_645   S
    Zn1    O182      1.98426      .   S
    N169   N170      1.38607      .   S
    N169   C145      1.31091      .   S
    H16    C87       1.09947      .   S
    O178   C98       1.30284      .   S
    N170   C146      1.33352      .   S
    C87    H17       1.09656      .   S
    C87    C86       1.47710      .   S
    C145   H64       1.08327      .   S
    C145   N171      1.37785      .   S
    H65    C147      1.09954      .   S
    C98    O179      1.24742      .   S
    C98    C99       1.50710      .   S
    H30    C104      1.08638      .   S
    H61    C141      1.09028      .   S
    O182   C118      1.30369      .   S
    C146   N171      1.37322      .   S
    C146   C147      1.47770      .   S
    N152   C86       1.33342      .   S
    N152   N151      1.38603      .   S
    N171   C142      1.43387      .   S
    C86    N153      1.37417      .   S
    C104   C99       1.40023      .   S
    C104   C103      1.39117      .   S
    C147   H67       1.01972  1_565   S
    C147   H66       1.09655      .   S
    C99    C100      1.40283      .   S
    H47    C124      1.08634      .   S
    C141   C142      1.39871      .   S
    C141   C140      1.39400      .   S
    C118   O183      1.24762  1_655   S
    C118   C119      1.50717      .   S
    H31    C105      1.08333      .   S
    C142   C143      1.39662      .   S
    H29    C103      1.08987      .   S
    C103   C102      1.39652      .   S
    H60    C140      1.08952      .   S
    C100   H27       1.08951      .   S
    C100   C101      1.39395      .   S
    N151   C85       1.31090      .   S
    C124   C119      1.40027      .   S
    C124   C123      1.39118      .   S
    C140   C139      1.40226      .   S
    H12    C81       1.09026      .   S
    N153   C85       1.37791      .   S
    N153   C82       1.43384      .   S
    C119   C120      1.40279      .   S
    C102   C101      1.39874      .   S
    C102   N159      1.43387      .   S
    C101   H28       1.09021      .   S
    H46    C123      1.08988      .   S
    C105   N159      1.37783      .   S
    C105   N157      1.31002      .   S
    C143   H62       1.08986      .   S
    C143   C144      1.39110      .   S
    C123   C122      1.39659      .   S
    C85    H15       1.08333      .   S
    C81    C82       1.39876      .   S
    C81    C80       1.39397      .   S
    C82    C83       1.39651      .   S
    C139   C144      1.40038      .   S
    C139   C138      1.50747      .   S
    N159   C106      1.37325      .   S
    C120   H44       1.08948      .   S
    C120   C121      1.39394      .   S
    C144   H63       1.08644      .   S
    N157   N158      1.38717      .   S
    H50    C127      1.09658      .   S
    H11    C80       1.08950      .   S
    C80    C79       1.40279      .   S
    C83    H13       1.08988      .   S
    C83    C84       1.39112      .   S
    O187   C138      1.24741      .   S
    C122   C121      1.39876      .   S
    C122   N165      1.42728      .   S
    C138   O186      1.30286      .   S
    H51    C127      1.09878      .   S
    C121   H45       1.09024      .   S
    C79    C84       1.40028      .   S
    C79    C78       1.50709      .   S
    C127   C126      1.47735      .   S
    C127   H49       1.09935      .   S
    C84    H14       1.08642      .   S
    C106   N158      1.33357      .   S
    C106   C107      1.47779      .   S
    N165   C126      1.37518      .   S
    N165   C125      1.38341      .   S
    N158   Zn32      2.01686  1_455   S
    C126   N164      1.33416      .   S
    O186   Zn2       1.98451      .   S
    O175   C78       1.24782  1_455   S
    C78    O174      1.30297      .   S
    H34    C107      1.09659      .   S
    H48    C125      1.08329      .   S
    C125   N163      1.31088      .   S
    C107   H33       1.09933      .   S
    N164   N163      1.38607      .   S
    N164   Zn2       2.01671      .   S
    O174   Zn32      1.98445      .   S
