# CIF file generated by openbabel 2.4.90, see http://openbabel.sf.net
data_I
_chemical_name_common ''
_cell_length_a 6.7645
_cell_length_b 6.7675
_cell_length_c 27.873
_cell_angle_alpha 90.329
_cell_angle_beta 90.02
_cell_angle_gamma 96.05
_space_group_name_H-M_alt 'P 1'
_space_group_name_Hall 'P 1'
loop_
    _symmetry_equiv_pos_as_xyz
    x,y,z
loop_
    _atom_site_label
    _atom_site_type_symbol
    _atom_site_fract_x
    _atom_site_fract_y
    _atom_site_fract_z
    _atom_site_occupancy
    Zr0     Zr   0.31730   0.96592   0.29157   1.000
    Zr1     Zr   0.96546   0.31715   0.70839   1.000
    Zr2     Zr   0.46544   0.81735   0.79155   1.000
    Zr3     Zr   0.81726   0.46443   0.20847   1.000
    Zr4     Zr   0.15404   0.76363   0.20400   1.000
    Zr5     Zr   0.51544   0.76716   0.21153   1.000
    Zr6     Zr   0.76462   0.15436   0.79578   1.000
    Zr7     Zr   0.76861   0.51567   0.78853   1.000
    Zr8     Zr   0.26449   0.65406   0.70388   1.000
    Zr9     Zr   0.26868   0.01554   0.71158   1.000
    Zr10    Zr   0.65425   0.26517   0.29603   1.000
    Zr11    Zr   0.01567   0.26939   0.28853   1.000
    Zr12    Zr   0.10781   0.80814   0.24662   1.000
    Zr13    Zr   0.04882   0.64087   0.17722   1.000
    Zr14    Zr   0.53408   0.80781   0.25587   1.000
    Zr15    Zr   0.61793   0.65396   0.18761   1.000
    Zr16    Zr   0.80765   0.10779   0.75310   1.000
    Zr17    Zr   0.64275   0.04962   0.82258   1.000
    Zr18    Zr   0.80834   0.53376   0.74421   1.000
    Zr19    Zr   0.65605   0.61863   0.81249   1.000
    Zr20    Zr   0.30853   0.60797   0.74643   1.000
    Zr21    Zr   0.14156   0.54900   0.67714   1.000
    Zr22    Zr   0.30779   0.03406   0.75598   1.000
    Zr23    Zr   0.15699   0.11860   0.68763   1.000
    Zr24    Zr   0.60771   0.30803   0.25345   1.000
    Zr25    Zr   0.54960   0.14303   0.32274   1.000
    Zr26    Zr   0.03395   0.30811   0.24418   1.000
    Zr27    Zr   0.11861   0.15751   0.31242   1.000
    O28     O    0.10143   0.70225   0.19061   1.000
    O29     O    0.93304   0.55265   0.19285   1.000
    O30     O    0.71759   0.55919   0.19804   1.000
    O31     O    0.56668   0.71056   0.19957   1.000
    O32     O    0.13092   0.78589   0.22531   1.000
    O33     O    0.92560   0.38627   0.22633   1.000
    O34     O    0.71248   0.38623   0.23096   1.000
    O35     O    0.52476   0.78748   0.23370   1.000
    O36     O    0.02481   0.28875   0.26636   1.000
    O37     O    0.21256   0.88703   0.26910   1.000
    O38     O    0.63098   0.28660   0.27474   1.000
    O39     O    0.42569   0.88686   0.27372   1.000
    O40     O    0.06714   0.21345   0.30048   1.000
    O41     O    0.21796   0.06171   0.30200   1.000
    O42     O    0.43345   0.05447   0.30716   1.000
    O43     O    0.60193   0.20410   0.30939   1.000
    O44     O    0.20303   0.60153   0.69051   1.000
    O45     O    0.05351   0.43308   0.69276   1.000
    O46     O    0.06122   0.21787   0.69801   1.000
    O47     O    0.21284   0.06707   0.69961   1.000
    O48     O    0.28651   0.63102   0.72515   1.000
    O49     O    0.88690   0.42545   0.72630   1.000
    O50     O    0.88656   0.21247   0.73074   1.000
    O51     O    0.28824   0.02480   0.73378   1.000
    O52     O    0.78847   0.52472   0.76637   1.000
    O53     O    0.38698   0.71266   0.76899   1.000
    O54     O    0.78614   0.13108   0.77444   1.000
    O55     O    0.38661   0.92571   0.77376   1.000
    O56     O    0.71233   0.56715   0.80051   1.000
    O57     O    0.56074   0.71799   0.80202   1.000
    O58     O    0.55409   0.93349   0.80706   1.000
    O59     O    0.70369   0.10199   0.80918   1.000
    N60     N    0.88261   0.88208   0.99983   1.000
    O61     O    0.83766   0.12320   0.08966   1.000
    O62     O    0.12440   0.83789   0.91019   1.000
    N63     N    0.85982   0.40298   0.32695   1.000
    O64     O    0.80630   0.35765   0.31656   1.000
    O65     O    0.89666   0.35870   0.31468   1.000
    N66     N    0.38519   0.38632   0.49974   1.000
    O67     O    0.62568   0.33958   0.58953   1.000
    O68     O    0.33937   0.62693   0.41017   1.000
    N69     N    0.40155   0.85906   0.67313   1.000
    O70     O    0.35645   0.80572   0.68347   1.000
    O71     O    0.35750   0.89609   0.68540   1.000
    N72     N    0.35971   0.89955   0.17315   1.000
    O73     O    0.39650   0.85568   0.18540   1.000
    O74     O    0.30615   0.85480   0.18352   1.000
    N75     N    0.90160   0.36028   0.82681   1.000
    O76     O    0.85752   0.39697   0.81458   1.000
    O77     O    0.85652   0.30665   0.81639   1.000
loop_
    _geom_bond_atom_site_label_1
    _geom_bond_atom_site_label_2
    _geom_bond_distance
    _geom_bond_site_symmetry_2
    _ccdc_geom_bond_type
    Zr13   O28       0.63673      .   S
    Zr4    O28       0.63673      .   S
    Zr13   O29       1.03161  1_455   S
    Zr3    O29       1.03161      .   S
    Zr15   O30       1.02153      .   S
    Zr3    O30       1.02153      .   S
    Zr15   O31       0.63611      .   S
    Zr5    O31       0.63611      .   S
    Zr4    O32       0.63551      .   S
    Zr12   O32       0.63551      .   S
    Zr3    O33       1.07193      .   S
    Zr26   O33       1.07193  1_455   S
    Zr3    O34       1.04896      .   S
    Zr24   O34       1.04896      .   S
    Zr5    O35       0.63403      .   S
    Zr14   O35       0.63403      .   S
    Zr26   O36       0.63419      .   S
    Zr11   O36       0.63419      .   S
    Zr12   O37       1.04677      .   S
    Zr0    O37       1.04677      .   S
    Zr24   O38       0.63538      .   S
    Zr10   O38       0.63538      .   S
    Zr14   O39       1.07300      .   S
    Zr0    O39       1.07300      .   S
    Zr11   O40       0.63608      .   S
    Zr27   O40       0.63608      .   S
    Zr0    O41       1.02279  1_565   S
    Zr27   O41       1.02279      .   S
    Zr0    O42       1.03083  1_565   S
    Zr25   O42       1.03083      .   S
    Zr10   O43       0.63691      .   S
    Zr25   O43       0.63691      .   S
    Zr21   O44       0.63666      .   S
    Zr8    O44       0.63666      .   S
    Zr21   O45       1.03223      .   S
    Zr1    O45       1.03223  1_655   S
    Zr23   O46       1.02195      .   S
    Zr1    O46       1.02195  1_655   S
    Zr23   O47       0.63621      .   S
    Zr9    O47       0.63621      .   S
    Zr8    O48       0.63561      .   S
    Zr20   O48       0.63561      .   S
    Zr1    O49       1.07095      .   S
    Zr18   O49       1.07095      .   S
    Zr1    O50       1.04908      .   S
    Zr16   O50       1.04908      .   S
    Zr9    O51       0.63400      .   S
    Zr22   O51       0.63400      .   S
    Zr18   O52       0.63416      .   S
    Zr7    O52       0.63416      .   S
    Zr20   O53       1.04618      .   S
    Zr2    O53       1.04618      .   S
    Zr16   O54       0.63540      .   S
    Zr6    O54       0.63540      .   S
    Zr22   O55       1.07437  1_545   S
    Zr2    O55       1.07437      .   S
    Zr7    O56       0.63599      .   S
    Zr19   O56       0.63599      .   S
    Zr2    O57       1.02295      .   S
    Zr19   O57       1.02295      .   S
    Zr2    O58       1.02997      .   S
    Zr17   O58       1.02997  1_545   S
    Zr6    O59       0.63701      .   S
    Zr17   O59       0.63701      .   S
    N60    O61       3.01378  1_566   S
    Zr3    O61       4.03715      .   S
    N60    O62       3.01741  1_655   S
    Zr2    O62       4.04274      .   S
    N63    O64       0.53341      .   S
    Zr10   O64       1.27932      .   S
    N63    O65       0.53232      .   S
    Zr11   O65       1.28172  1_455   S
    N66    O67       3.02075      .   S
    Zr1    O67       4.04413      .   S
    N66    O68       3.02219      .   S
    Zr0    O68       4.04605      .   S
    N69    O70       0.53338      .   S
    Zr8    O70       1.27914      .   S
    N69    O71       0.53230      .   S
    Zr9    O71       1.28177  1_545   S
    N72    O73       0.53230      .   S
    Zr5    O73       1.28164      .   S
    N72    O74       0.53330      .   S
    Zr4    O74       1.27905      .   S
    N75    O76       0.53231      .   S
    Zr7    O76       1.28159      .   S
    N75    O77       0.53337      .   S
    Zr6    O77       1.27927      .   S
