# CIF file generated by openbabel 2.4.90, see http://openbabel.sf.net
data_I
_chemical_name_common ''
_cell_length_a 14.074
_cell_length_b 16.943
_cell_length_c 16.943
_cell_angle_alpha 111.854
_cell_angle_beta 91.018
_cell_angle_gamma 91.021
_space_group_name_H-M_alt 'P 1'
_space_group_name_Hall 'P 1'
loop_
    _symmetry_equiv_pos_as_xyz
    x,y,z
loop_
    _atom_site_label
    _atom_site_type_symbol
    _atom_site_fract_x
    _atom_site_fract_y
    _atom_site_fract_z
    _atom_site_occupancy
    N0      N    0.50000   0.99999   0.74993   1.000
    N1      N    0.00000   0.99999   0.74996   1.000
    N2      N    0.50000   0.49999   0.24991   1.000
    N3      N    0.25000   0.74999   0.49997   1.000
    N4      N    0.75000   0.24999   0.49997   1.000
    N5      N    0.75000   0.74999   0.99998   1.000
    N6      N    0.75000   0.24999   0.99998   1.000
    N7      N    0.00000   0.49999   0.24997   1.000
    N8      N    0.25001   0.24999   0.99995   1.000
    N9      N    0.25000   0.74999   0.99996   1.000
    N10     N    0.00000   0.49999   0.74997   1.000
    N11     N    0.75000   0.74999   0.49998   1.000
    N12     N    0.00000   0.99999   0.24998   1.000
    N13     N    0.50000   0.99999   0.24989   1.000
    N14     N    0.50000   0.49999   0.74997   1.000
    N15     N    0.25001   0.24999   0.49997   1.000
    Zr16    Zr   0.87500   0.46262   0.03735   1.000
    O17     O    0.83201   0.39383   0.02447   1.000
    O18     O    0.91799   0.47551   0.10614   1.000
    Zr19    Zr   0.37500   0.46262   0.53734   1.000
    O20     O    0.41799   0.47550   0.60613   1.000
    O21     O    0.33202   0.39383   0.52446   1.000
    Zr22    Zr   0.12501   0.03736   0.96260   1.000
    O23     O    0.08202   0.02448   0.89381   1.000
    O24     O    0.16800   0.10615   0.97547   1.000
    Zr25    Zr   0.37500   0.46262   0.03732   1.000
    O26     O    0.41799   0.47551   0.10610   1.000
    O27     O    0.33202   0.39383   0.02444   1.000
    Zr28    Zr   0.62500   0.03736   0.46260   1.000
    O29     O    0.58201   0.02448   0.39379   1.000
    O30     O    0.66799   0.10615   0.47548   1.000
    Zr31    Zr   0.87500   0.96262   0.03735   1.000
    O32     O    0.91798   0.97550   0.10615   1.000
    O33     O    0.83201   0.89383   0.02447   1.000
    Zr34    Zr   0.62500   0.53736   0.96260   1.000
    O35     O    0.58201   0.52447   0.89381   1.000
    O36     O    0.66799   0.60615   0.97549   1.000
    Zr37    Zr   0.62500   0.53736   0.46260   1.000
    O38     O    0.58201   0.52448   0.39380   1.000
    O39     O    0.66799   0.60615   0.47549   1.000
    Zr40    Zr   0.87500   0.46262   0.53734   1.000
    O41     O    0.83201   0.39383   0.52446   1.000
    O42     O    0.91799   0.47550   0.60613   1.000
    Zr43    Zr   0.87500   0.96262   0.53734   1.000
    O44     O    0.91798   0.97550   0.60613   1.000
    O45     O    0.83201   0.89383   0.52446   1.000
    Zr46    Zr   0.12500   0.53736   0.96259   1.000
    O47     O    0.16799   0.60615   0.97548   1.000
    O48     O    0.08202   0.52447   0.89380   1.000
    Zr49    Zr   0.12501   0.03736   0.46261   1.000
    O50     O    0.08202   0.02448   0.39382   1.000
    O51     O    0.16800   0.10615   0.47549   1.000
    Zr52    Zr   0.37500   0.96262   0.03735   1.000
    O53     O    0.41799   0.97550   0.10605   1.000
    O54     O    0.33201   0.89383   0.02446   1.000
    Zr55    Zr   0.37500   0.96262   0.53734   1.000
    O56     O    0.41799   0.97550   0.60612   1.000
    O57     O    0.33201   0.89383   0.52446   1.000
    Zr58    Zr   0.62500   0.03736   0.96260   1.000
    O59     O    0.66799   0.10615   0.97548   1.000
    O60     O    0.58202   0.02448   0.89380   1.000
    Zr61    Zr   0.12500   0.53736   0.46261   1.000
    O62     O    0.16799   0.60615   0.47549   1.000
    O63     O    0.08202   0.52448   0.39382   1.000
loop_
    _geom_bond_atom_site_label_1
    _geom_bond_atom_site_label_2
    _geom_bond_distance
    _geom_bond_site_symmetry_2
    _ccdc_geom_bond_type
    Zr16   O17       1.24614      .   S
    N6     O17       2.56386  1_556   S
    Zr16   O18       1.24616      .   S
    N7     O18       2.56385  1_455   S
    Zr19   O20       1.24621      .   S
    N14    O20       2.56390      .   S
    Zr19   O21       1.24614      .   S
    N15    O21       2.56388      .   S
    Zr22   O23       1.24624      .   S
    N1     O23       2.56407  1_565   S
    Zr22   O24       1.24622      .   S
    N8     O24       2.56395      .   S
    Zr25   O26       1.24598      .   S
    N2     O26       2.56357      .   S
    Zr25   O27       1.24610      .   S
    N8     O27       2.56390  1_556   S
    Zr28   O29       1.24646      .   S
    N13    O29       2.56492  1_565   S
    Zr28   O30       1.24619      .   S
    N4     O30       2.56390      .   S
    Zr31   O32       1.24619      .   S
    N12    O32       2.56395  1_455   S
    Zr31   O33       1.24617      .   S
    N5     O33       2.56392  1_556   S
    Zr34   O35       1.24618      .   S
    N14    O35       2.56398      .   S
    Zr34   O36       1.24611      .   S
    N5     O36       2.56387      .   S
    Zr37   O38       1.24640      .   S
    N2     O38       2.56463      .   S
    Zr37   O39       1.24612      .   S
    N11    O39       2.56385      .   S
    Zr40   O41       1.24614      .   S
    N4     O41       2.56386      .   S
    Zr40   O42       1.24619      .   S
    N10    O42       2.56392  1_455   S
    Zr43   O44       1.24616      .   S
    N1     O44       2.56390  1_455   S
    Zr43   O45       1.24618      .   S
    N11    O45       2.56394      .   S
    Zr46   O47       1.24613      .   S
    N9     O47       2.56391      .   S
    Zr46   O48       1.24613      .   S
    N10    O48       2.56398      .   S
    Zr49   O50       1.24614      .   S
    N12    O50       2.56395  1_565   S
    Zr49   O51       1.24618      .   S
    N15    O51       2.56391      .   S
    Zr52   O53       1.24476      .   S
    N13    O53       2.56401      .   S
    Zr52   O54       1.24615      .   S
    N9     O54       2.56387  1_556   S
    Zr55   O56       1.24607      .   S
    N0     O56       2.56346      .   S
    Zr55   O57       1.24619      .   S
    N3     O57       2.56390      .   S
    Zr58   O59       1.24615      .   S
    N6     O59       2.56393      .   S
    Zr58   O60       1.24632      .   S
    N0     O60       2.56442  1_565   S
    Zr61   O62       1.24612      .   S
    N3     O62       2.56388      .   S
    Zr61   O63       1.24617      .   S
    N7     O63       2.56405      .   S
