# CIF file generated by openbabel 2.4.90, see http://openbabel.sf.net
data_I
_chemical_name_common ''
_cell_length_a 18.665
_cell_length_b 19.524
_cell_length_c 19.476
_cell_angle_alpha 122.217
_cell_angle_beta 89.958
_cell_angle_gamma 90.118
_space_group_name_H-M_alt 'P 1'
_space_group_name_Hall 'P 1'
loop_
    _symmetry_equiv_pos_as_xyz
    x,y,z
loop_
    _atom_site_label
    _atom_site_type_symbol
    _atom_site_fract_x
    _atom_site_fract_y
    _atom_site_fract_z
    _atom_site_occupancy
    Zr0     Zr   0.28435   0.20386   0.13740   1.000
    Zr1     Zr   0.28434   0.20386   0.63740   1.000
    Zr2     Zr   0.28434   0.70385   0.13739   1.000
    Zr3     Zr   0.28434   0.70385   0.63739   1.000
    Zr4     Zr   0.78434   0.20386   0.13740   1.000
    Zr5     Zr   0.78433   0.20386   0.63740   1.000
    Zr6     Zr   0.78433   0.70385   0.13739   1.000
    Zr7     Zr   0.78433   0.70385   0.63739   1.000
    Zr8     Zr   0.03440   0.29609   0.36253   1.000
    Zr9     Zr   0.03440   0.29609   0.86253   1.000
    Zr10    Zr   0.03440   0.79608   0.36253   1.000
    Zr11    Zr   0.03440   0.79608   0.86253   1.000
    Zr12    Zr   0.53439   0.29609   0.36253   1.000
    Zr13    Zr   0.53439   0.29609   0.86253   1.000
    Zr14    Zr   0.53439   0.79608   0.36253   1.000
    Zr15    Zr   0.53439   0.79608   0.86253   1.000
    N16     N    0.24002   0.83988   0.95206   1.000
    O17     O    0.24615   0.77345   0.81599   1.000
    O18     O    0.26553   0.99119   0.02278   1.000
    O19     O    0.16104   0.80590   0.89449   1.000
    O20     O    0.25619   0.78329   0.02791   1.000
    N21     N    0.99007   0.16010   0.04782   1.000
    O22     O    0.99622   0.22649   0.18391   1.000
    O23     O    0.01560   0.00878   0.97714   1.000
    O24     O    0.91104   0.19409   0.10545   1.000
    O25     O    0.00624   0.21660   0.97193   1.000
    N26     N    0.99007   0.66010   0.54782   1.000
    O27     O    0.01560   0.50879   0.47714   1.000
    O28     O    0.99621   0.72649   0.68391   1.000
    O29     O    0.00624   0.71659   0.47193   1.000
    O30     O    0.91103   0.69409   0.60545   1.000
    N31     N    0.99007   0.66010   0.04781   1.000
    O32     O    0.01560   0.50878   0.97714   1.000
    O33     O    0.99622   0.72649   0.18391   1.000
    O34     O    0.00624   0.71659   0.97193   1.000
    O35     O    0.91103   0.69409   0.10544   1.000
    N36     N    0.74001   0.83988   0.95205   1.000
    O37     O    0.76552   0.99119   0.02278   1.000
    O38     O    0.74614   0.77345   0.81598   1.000
    O39     O    0.66103   0.80590   0.89449   1.000
    O40     O    0.75617   0.78329   0.02791   1.000
    N41     N    0.74001   0.33988   0.95217   1.000
    O42     O    0.74614   0.27345   0.81604   1.000
    O43     O    0.66103   0.30591   0.89455   1.000
    O44     O    0.75618   0.28329   0.02797   1.000
    O45     O    0.76552   0.49119   0.02284   1.000
    N46     N    0.24002   0.33988   0.95217   1.000
    O47     O    0.24615   0.27345   0.81604   1.000
    O48     O    0.26553   0.49118   0.02284   1.000
    O49     O    0.16104   0.30591   0.89455   1.000
    O50     O    0.25619   0.28329   0.02797   1.000
    N51     N    0.74001   0.33988   0.45217   1.000
    O52     O    0.74615   0.27346   0.31605   1.000
    O53     O    0.66103   0.30591   0.39455   1.000
    O54     O    0.75618   0.28329   0.52797   1.000
    O55     O    0.76552   0.49118   0.52284   1.000
    N56     N    0.24002   0.83988   0.45215   1.000
    O57     O    0.24615   0.77345   0.31603   1.000
    O58     O    0.26553   0.99119   0.52283   1.000
    O59     O    0.16104   0.80590   0.39454   1.000
    O60     O    0.25618   0.78329   0.52796   1.000
    N61     N    0.49007   0.66010   0.04781   1.000
    O62     O    0.49622   0.72649   0.18391   1.000
    O63     O    0.51559   0.50878   0.97714   1.000
    O64     O    0.41104   0.69409   0.10544   1.000
    O65     O    0.50623   0.71659   0.97193   1.000
    N66     N    0.99007   0.16010   0.54778   1.000
    O67     O    0.99622   0.22649   0.68390   1.000
    O68     O    0.01560   0.00878   0.47712   1.000
    O69     O    0.91104   0.19409   0.60543   1.000
    O70     O    0.00624   0.21660   0.47191   1.000
    N71     N    0.24002   0.33988   0.45218   1.000
    O72     O    0.24616   0.27346   0.31605   1.000
    O73     O    0.26553   0.49119   0.52284   1.000
    O74     O    0.16104   0.30591   0.39455   1.000
    O75     O    0.25619   0.28329   0.52797   1.000
    N76     N    0.49007   0.16010   0.54778   1.000
    O77     O    0.49622   0.22649   0.68389   1.000
    O78     O    0.51559   0.00878   0.47712   1.000
    O79     O    0.41104   0.19409   0.60543   1.000
    O80     O    0.50624   0.21660   0.47191   1.000
    N81     N    0.49007   0.16010   0.04781   1.000
    O82     O    0.49622   0.22649   0.18391   1.000
    O83     O    0.51559   0.00878   0.97714   1.000
    O84     O    0.41104   0.19409   0.10545   1.000
    O85     O    0.50624   0.21660   0.97193   1.000
    N86     N    0.49007   0.66010   0.54782   1.000
    O87     O    0.49621   0.72649   0.68391   1.000
    O88     O    0.51560   0.50879   0.47714   1.000
    O89     O    0.41104   0.69409   0.60545   1.000
    O90     O    0.50623   0.71659   0.47193   1.000
    N91     N    0.74001   0.83988   0.45215   1.000
    O92     O    0.74614   0.77345   0.31603   1.000
    O93     O    0.76552   0.99119   0.52283   1.000
    O94     O    0.66103   0.80590   0.39454   1.000
    O95     O    0.75617   0.78329   0.52796   1.000
loop_
    _geom_bond_atom_site_label_1
    _geom_bond_atom_site_label_2
    _geom_bond_distance
    _geom_bond_site_symmetry_2
    _ccdc_geom_bond_type
    N16    O17       2.24802      .   S
    Zr3    O17       3.06821      .   S
    N16    O18       2.55097  1_556   S
    Zr0    O18       3.52977  1_545   S
    N16    O19       1.75376      .   S
    Zr11   O19       2.42579      .   S
    N16    O20       2.28840  1_556   S
    Zr2    O20       3.28015      .   S
    N21    O22       2.24846      .   S
    Zr8    O22       3.06847  1_455   S
    N21    O23       2.55318  1_654   S
    Zr11   O23       3.53161  1_565   S
    N21    O24       1.75601      .   S
    Zr4    O24       2.42682      .   S
    N21    O25       2.28654  1_654   S
    Zr9    O25       3.27808      .   S
    N26    O27       2.55307  1_655   S
    Zr8    O27       3.53150      .   S
    N26    O28       2.24845      .   S
    Zr11   O28       3.06846  1_455   S
    N26    O29       2.28653  1_655   S
    Zr10   O29       3.27807      .   S
    N26    O30       1.75602      .   S
    Zr7    O30       2.42684      .   S
    N31    O32       2.55308  1_654   S
    Zr9    O32       3.53150      .   S
    N31    O33       2.24850      .   S
    Zr10   O33       3.06851  1_455   S
    N31    O34       2.28648  1_654   S
    Zr11   O34       3.27802      .   S
    N31    O35       1.75602      .   S
    Zr6    O35       2.42683      .   S
    N36    O37       2.55098  1_556   S
    Zr4    O37       3.52978  1_545   S
    N36    O38       2.24801      .   S
    Zr7    O38       3.06820      .   S
    N36    O39       1.75375      .   S
    Zr15   O39       2.42579      .   S
    N36    O40       2.28841  1_556   S
    Zr6    O40       3.28015      .   S
    N41    O42       2.24895      .   S
    Zr5    O42       3.06908      .   S
    N41    O43       1.75423      .   S
    Zr13   O43       2.42602      .   S
    N41    O44       2.28741  1_556   S
    Zr4    O44       3.27924      .   S
    N41    O45       2.55093  1_556   S
    Zr6    O45       3.52965      .   S
    N46    O47       2.24894      .   S
    Zr1    O47       3.06908      .   S
    N46    O48       2.55093  1_556   S
    Zr2    O48       3.52964      .   S
    N46    O49       1.75423      .   S
    Zr9    O49       2.42601      .   S
    N46    O50       2.28741  1_556   S
    Zr0    O50       3.27924      .   S
    N51    O52       2.24898      .   S
    Zr4    O52       3.06912      .   S
    N51    O53       1.75422      .   S
    Zr12   O53       2.42600      .   S
    N51    O54       2.28739      .   S
    Zr5    O54       3.27923      .   S
    N51    O55       2.55092      .   S
    Zr7    O55       3.52964      .   S
    N56    O57       2.24884      .   S
    Zr2    O57       3.06906      .   S
    N56    O58       2.55103      .   S
    Zr1    O58       3.52976  1_545   S
    N56    O59       1.75415      .   S
    Zr10   O59       2.42597      .   S
    N56    O60       2.28754      .   S
    Zr3    O60       3.27928      .   S
    N61    O62       2.24850      .   S
    Zr14   O62       3.06847      .   S
    N61    O63       2.55306  1_554   S
    Zr13   O63       3.53149      .   S
    N61    O64       1.75595      .   S
    Zr2    O64       2.42673      .   S
    N61    O65       2.28646  1_554   S
    Zr15   O65       3.27800      .   S
    N66    O67       2.24873      .   S
    Zr9    O67       3.06874  1_455   S
    N66    O68       2.55320  1_655   S
    Zr10   O68       3.53160  1_565   S
    N66    O69       1.75617      .   S
    Zr5    O69       2.42692      .   S
    N66    O70       2.28629  1_655   S
    Zr8    O70       3.27783      .   S
    N71    O72       2.24901      .   S
    Zr0    O72       3.06915      .   S
    N71    O73       2.55091      .   S
    Zr3    O73       3.52963      .   S
    N71    O74       1.75424      .   S
    Zr8    O74       2.42600      .   S
    N71    O75       2.28736      .   S
    Zr1    O75       3.27920      .   S
    N76    O77       2.24877      .   S
    Zr13   O77       3.06874      .   S
    N76    O78       2.55318      .   S
    Zr14   O78       3.53158  1_565   S
    N76    O79       1.75611      .   S
    Zr1    O79       2.42683      .   S
    N76    O80       2.28622      .   S
    Zr12   O80       3.27777      .   S
    N81    O82       2.24849      .   S
    Zr12   O82       3.06846      .   S
    N81    O83       2.55317  1_554   S
    Zr15   O83       3.53159  1_565   S
    N81    O84       1.75595      .   S
    Zr0    O84       2.42674      .   S
    N81    O85       2.28649  1_554   S
    Zr13   O85       3.27802      .   S
    N86    O87       2.24846      .   S
    Zr15   O87       3.06842      .   S
    N86    O88       2.55305      .   S
    Zr12   O88       3.53148      .   S
    N86    O89       1.75595      .   S
    Zr3    O89       2.42675      .   S
    N86    O90       2.28651      .   S
    Zr14   O90       3.27805      .   S
    N91    O92       2.24885      .   S
    Zr6    O92       3.06907      .   S
    N91    O93       2.55102      .   S
    Zr5    O93       3.52975  1_545   S
    N91    O94       1.75416      .   S
    Zr14   O94       2.42597      .   S
    N91    O95       2.28754      .   S
    Zr7    O95       3.27928      .   S
