# CIF file generated by openbabel 2.4.90, see http://openbabel.sf.net
data_I
_chemical_name_common ''
_cell_length_a 15.295
_cell_length_b 19.779
_cell_length_c 15.02
_cell_angle_alpha 109.185
_cell_angle_beta 100.984
_cell_angle_gamma 90.011
_space_group_name_H-M_alt 'P 1'
_space_group_name_Hall 'P 1'
loop_
    _symmetry_equiv_pos_as_xyz
    x,y,z
loop_
    _atom_site_label
    _atom_site_type_symbol
    _atom_site_fract_x
    _atom_site_fract_y
    _atom_site_fract_z
    _atom_site_occupancy
    Zr0     Zr   0.00002   0.25001   0.50002   1.000
    Zr1     Zr   0.00002   0.75000   0.50002   1.000
    Zr2     Zr   0.50001   0.25001   0.50002   1.000
    Zr3     Zr   0.50001   0.75000   0.50002   1.000
    Zr4     Zr   0.25002   0.00002   0.50002   1.000
    Zr5     Zr   0.25002   0.50001   0.50002   1.000
    Zr6     Zr   0.75001   0.00002   0.50002   1.000
    Zr7     Zr   0.75001   0.50001   0.50002   1.000
    N8      N    0.87500   0.92778   0.99994   1.000
    O9      O    0.92473   0.85536   0.78630   1.000
    O10     O    0.82530   0.96219   0.21364   1.000
    N11     N    0.87500   0.42778   0.99994   1.000
    O12     O    0.92473   0.35537   0.78630   1.000
    O13     O    0.82530   0.46219   0.21362   1.000
    N14     N    0.37501   0.42778   0.99992   1.000
    O15     O    0.42473   0.35537   0.78629   1.000
    O16     O    0.32531   0.46219   0.21362   1.000
    N17     N    0.37501   0.92778   0.99994   1.000
    O18     O    0.42473   0.85536   0.78630   1.000
    O19     O    0.32531   0.96219   0.21362   1.000
    N20     N    0.12503   0.07222   0.00007   1.000
    O21     O    0.07531   0.14465   0.21373   1.000
    O22     O    0.17473   0.03782   0.78638   1.000
    N23     N    0.12503   0.57223   0.00009   1.000
    O24     O    0.07530   0.64465   0.21374   1.000
    O25     O    0.17473   0.53782   0.78639   1.000
    N26     N    0.62502   0.07222   0.00007   1.000
    O27     O    0.57530   0.14465   0.21373   1.000
    O28     O    0.67473   0.03782   0.78638   1.000
    N29     N    0.62502   0.57223   0.00007   1.000
    O30     O    0.57530   0.64465   0.21373   1.000
    O31     O    0.67472   0.53782   0.78638   1.000
    N32     N    0.30791   0.31769   0.43981   1.000
    O33     O    0.36233   0.28265   0.44160   1.000
    O34     O    0.28764   0.37955   0.46674   1.000
    N35     N    0.30790   0.81768   0.43981   1.000
    O36     O    0.36232   0.78264   0.44160   1.000
    O37     O    0.28764   0.87955   0.46674   1.000
    N38     N    0.80790   0.31769   0.43979   1.000
    O39     O    0.86232   0.28265   0.44158   1.000
    O40     O    0.78764   0.37955   0.46673   1.000
    N41     N    0.80790   0.81768   0.43981   1.000
    O42     O    0.86232   0.78264   0.44160   1.000
    O43     O    0.78763   0.87955   0.46674   1.000
    N44     N    0.55799   0.90220   0.43960   1.000
    O45     O    0.61239   0.93815   0.44143   1.000
    O46     O    0.53771   0.85379   0.46658   1.000
    N47     N    0.44204   0.09782   0.56041   1.000
    O48     O    0.38764   0.06186   0.55858   1.000
    O49     O    0.46232   0.14623   0.53344   1.000
    N50     N    0.44204   0.59780   0.56041   1.000
    O51     O    0.38764   0.56185   0.55858   1.000
    O52     O    0.46232   0.64621   0.53344   1.000
    N53     N    0.94203   0.09782   0.56041   1.000
    O54     O    0.88764   0.06186   0.55858   1.000
    O55     O    0.96232   0.14623   0.53344   1.000
    N56     N    0.94203   0.59780   0.56041   1.000
    O57     O    0.88763   0.56185   0.55858   1.000
    O58     O    0.96232   0.64621   0.53344   1.000
    N59     N    0.19213   0.18233   0.56022   1.000
    O60     O    0.13771   0.21737   0.55844   1.000
    O61     O    0.21240   0.12047   0.53330   1.000
    N62     N    0.19213   0.68232   0.56022   1.000
    O63     O    0.13771   0.71736   0.55844   1.000
    O64     O    0.21239   0.62046   0.53330   1.000
    N65     N    0.69213   0.18233   0.56022   1.000
    O66     O    0.63770   0.21737   0.55844   1.000
    O67     O    0.71239   0.12047   0.53330   1.000
    N68     N    0.69212   0.68232   0.56022   1.000
    O69     O    0.63770   0.71736   0.55844   1.000
    O70     O    0.71238   0.62046   0.53330   1.000
    N71     N    0.05800   0.40221   0.43962   1.000
    O72     O    0.11240   0.43816   0.44146   1.000
    O73     O    0.03771   0.35380   0.46659   1.000
    N74     N    0.05800   0.90219   0.43962   1.000
    O75     O    0.11240   0.93815   0.44146   1.000
    O76     O    0.03771   0.85379   0.46659   1.000
    N77     N    0.55799   0.40221   0.43962   1.000
    O78     O    0.61239   0.43816   0.44146   1.000
    O79     O    0.53771   0.35380   0.46659   1.000
loop_
    _geom_bond_atom_site_label_1
    _geom_bond_atom_site_label_2
    _geom_bond_distance
    _geom_bond_site_symmetry_2
    _ccdc_geom_bond_type
    N8     O9        3.29193      .   S
    Zr1    O9        4.48960  1_455   S
    N8     O10       3.29216  1_556   S
    Zr6    O10       4.49000  1_545   S
    N11    O12       3.29192      .   S
    Zr0    O12       4.48958  1_455   S
    N11    O13       3.29193  1_556   S
    Zr7    O13       4.49035      .   S
    N14    O15       3.29177      .   S
    Zr2    O15       4.48938      .   S
    N14    O16       3.29207  1_556   S
    Zr5    O16       4.49047      .   S
    N17    O18       3.29187      .   S
    Zr3    O18       4.48948      .   S
    N17    O19       3.29194  1_556   S
    Zr4    O19       4.49030  1_545   S
    N20    O21       3.29216      .   S
    Zr0    O21       4.48977      .   S
    N20    O22       3.29198  1_554   S
    Zr4    O22       4.48982      .   S
    N23    O24       3.29200      .   S
    Zr1    O24       4.48961      .   S
    N23    O25       3.29210  1_554   S
    Zr5    O25       4.48994      .   S
    N26    O27       3.29212      .   S
    Zr2    O27       4.48973      .   S
    N26    O28       3.29203  1_554   S
    Zr6    O28       4.48988      .   S
    N29    O30       3.29210      .   S
    Zr3    O30       4.48970      .   S
    N29    O31       3.29199  1_554   S
    Zr7    O31       4.48983      .   S
    N32    O33       1.08526      .   S
    Zr2    O33       2.30010      .   S
    N32    O34       1.21630      .   S
    Zr5    O34       2.36316      .   S
    N35    O36       1.08526      .   S
    Zr3    O36       2.30010      .   S
    N35    O37       1.21640      .   S
    Zr4    O37       2.36349  1_545   S
    N38    O39       1.08532      .   S
    Zr0    O39       2.30032  1_455   S
    N38    O40       1.21631      .   S
    Zr7    O40       2.36315      .   S
    N41    O42       1.08531      .   S
    Zr1    O42       2.30026  1_455   S
    N41    O43       1.21640      .   S
    Zr6    O43       2.36349  1_545   S
    N44    O45       1.08495      .   S
    Zr6    O45       2.29956  1_545   S
    N44    O46       1.21662      .   S
    Zr3    O46       2.36348      .   S
    N47    O48       1.08482      .   S
    Zr4    O48       2.29934      .   S
    N47    O49       1.21647      .   S
    Zr2    O49       2.36336      .   S
    N50    O51       1.08482      .   S
    Zr5    O51       2.29934      .   S
    N50    O52       1.21648      .   S
    Zr3    O52       2.36336      .   S
    N53    O54       1.08482      .   S
    Zr6    O54       2.29933      .   S
    N53    O55       1.21649      .   S
    Zr0    O55       2.36341  1_455   S
    N56    O57       1.08482      .   S
    Zr7    O57       2.29934      .   S
    N56    O58       1.21650      .   S
    Zr1    O58       2.36343  1_455   S
    N59    O60       1.08527      .   S
    Zr0    O60       2.30010      .   S
    N59    O61       1.21630      .   S
    Zr4    O61       2.36317      .   S
    N62    O63       1.08526      .   S
    Zr1    O63       2.30009      .   S
    N62    O64       1.21630      .   S
    Zr5    O64       2.36317      .   S
    N65    O66       1.08527      .   S
    Zr2    O66       2.30009      .   S
    N65    O67       1.21630      .   S
    Zr6    O67       2.36316      .   S
    N68    O69       1.08526      .   S
    Zr3    O69       2.30008      .   S
    N68    O70       1.21630      .   S
    Zr7    O70       2.36317      .   S
    N71    O72       1.08482      .   S
    Zr5    O72       2.29935      .   S
    N71    O73       1.21650      .   S
    Zr0    O73       2.36338      .   S
    N74    O75       1.08491      .   S
    Zr4    O75       2.29954  1_545   S
    N74    O76       1.21650      .   S
    Zr1    O76       2.36337      .   S
    N77    O78       1.08482      .   S
    Zr7    O78       2.29934      .   S
    N77    O79       1.21650      .   S
    Zr2    O79       2.36338      .   S
