# CIF file generated by openbabel 2.4.90, see http://openbabel.sf.net
data_I
_chemical_name_common ''
_cell_length_a 12.884
_cell_length_b 13.185
_cell_length_c 16.252
_cell_angle_alpha 113.652
_cell_angle_beta 112.964
_cell_angle_gamma 90.493
_space_group_name_H-M_alt 'P 1'
_space_group_name_Hall 'P 1'
loop_
    _symmetry_equiv_pos_as_xyz
    x,y,z
loop_
    _atom_site_label
    _atom_site_type_symbol
    _atom_site_fract_x
    _atom_site_fract_y
    _atom_site_fract_z
    _atom_site_occupancy
    Lv0     Lv   0.25037   0.05766   0.00059   1.000
    Lv1     Lv   0.75468   0.94384   0.01719   1.000
    Lv2     Lv   0.06102   0.74825   0.00054   1.000
    Lv3     Lv   0.94038   0.26447   0.01723   1.000
    Lv4     Lv   0.00000   0.13666   0.83826   1.000
    Lv5     Lv   0.70316   0.00000   0.83824   1.000
