# CIF file generated by openbabel 2.4.90, see http://openbabel.sf.net
data_I
_chemical_name_common ''
_cell_length_a 14.816
_cell_length_b 14.822
_cell_length_c 14.809
_cell_angle_alpha 109.433
_cell_angle_beta 109.37
_cell_angle_gamma 109.348
_space_group_name_H-M_alt 'P 1'
_space_group_name_Hall 'P 1'
loop_
    _symmetry_equiv_pos_as_xyz
    x,y,z
loop_
    _atom_site_label
    _atom_site_type_symbol
    _atom_site_fract_x
    _atom_site_fract_y
    _atom_site_fract_z
    _atom_site_occupancy
    Zn0     Zn   0.24861   0.50026   0.75023   1.000
    Zn1     Zn   0.25020   0.75051   0.49918   1.000
    Zn2     Zn   0.75022   0.24988   0.50158   1.000
    Zn3     Zn   0.50112   0.75140   0.24932   1.000
    Zn4     Zn   0.49892   0.24948   0.75103   1.000
    Zn5     Zn   0.75167   0.50086   0.25321   1.000
    Ts6     Ts   0.19641   0.45924   0.71751   1.000
    Ts7     Ts   0.25565   0.54071   0.73795   1.000
    Ts8     Ts   0.26053   0.52011   0.80282   1.000
    Ts9     Ts   0.28204   0.48091   0.74293   1.000
    Ts10    Ts   0.26198   0.80307   0.51834   1.000
    Ts11    Ts   0.28380   0.74325   0.48023   1.000
    Ts12    Ts   0.19782   0.71725   0.45861   1.000
    Ts13    Ts   0.25706   0.73846   0.53984   1.000
    Ts14    Ts   0.73827   0.25738   0.54232   1.000
    Ts15    Ts   0.71748   0.19766   0.46058   1.000
    Ts16    Ts   0.74331   0.28374   0.48283   1.000
    Ts17    Ts   0.80271   0.26141   0.52119   1.000
    Ts18    Ts   0.46012   0.71846   0.19707   1.000
    Ts19    Ts   0.54161   0.73911   0.25657   1.000
    Ts20    Ts   0.48219   0.74443   0.28310   1.000
    Ts21    Ts   0.52107   0.80391   0.26112   1.000
    Ts22    Ts   0.47947   0.28263   0.74330   1.000
    Ts23    Ts   0.51867   0.26172   0.80392   1.000
    Ts24    Ts   0.45834   0.19715   0.71798   1.000
    Ts25    Ts   0.53967   0.25695   0.73921   1.000
    Ts26    Ts   0.74401   0.48203   0.28661   1.000
    Ts27    Ts   0.80402   0.51964   0.26460   1.000
    Ts28    Ts   0.73944   0.54124   0.25955   1.000
    Ts29    Ts   0.71903   0.46013   0.20042   1.000
loop_
    _geom_bond_atom_site_label_1
    _geom_bond_atom_site_label_2
    _geom_bond_distance
    _geom_bond_site_symmetry_2
    _ccdc_geom_bond_type
    Zn0    Ts6       0.66807      .   S
    Zn0    Ts7       0.66874      .   S
    Zn0    Ts8       0.66792      .   S
    Zn0    Ts9       0.66946      .   S
    Zn1    Ts10      0.66917      .   S
    Zn1    Ts11      0.66796      .   S
    Zn1    Ts12      0.66818      .   S
    Zn1    Ts13      0.66922      .   S
    Zn2    Ts14      0.66851      .   S
    Zn2    Ts15      0.66796      .   S
    Zn2    Ts16      0.66882      .   S
    Zn2    Ts17      0.66889      .   S
    Zn3    Ts18      0.66811      .   S
    Zn3    Ts19      0.66883      .   S
    Zn3    Ts20      0.66914      .   S
    Zn3    Ts21      0.66818      .   S
    Zn4    Ts22      0.66849      .   S
    Zn4    Ts23      0.67101      .   S
    Zn4    Ts24      0.66773      .   S
    Zn4    Ts25      0.66789      .   S
    Zn5    Ts26      0.66594      .   S
    Zn5    Ts27      0.66819      .   S
    Zn5    Ts28      0.66760      .   S
    Zn5    Ts29      0.67172      .   S
