# CIF file generated by openbabel 2.4.90, see http://openbabel.sf.net
data_I
_chemical_name_common ''
_cell_length_a 16.645
_cell_length_b 16.816
_cell_length_c 27.26
_cell_angle_alpha 90.069
_cell_angle_beta 90.16
_cell_angle_gamma 89.401
_space_group_name_H-M_alt 'P 1'
_space_group_name_Hall 'P 1'
loop_
    _symmetry_equiv_pos_as_xyz
    x,y,z
loop_
    _atom_site_label
    _atom_site_type_symbol
    _atom_site_fract_x
    _atom_site_fract_y
    _atom_site_fract_z
    _atom_site_occupancy
    Zr0     Zr   0.50759   0.78277   0.57661   1.000
    Zr1     Zr   0.00000   0.78276   0.57662   1.000
    Zr2     Zr   0.24731   0.28356   0.42321   1.000
    Zr3     Zr   0.74728   0.28357   0.42322   1.000
    Zr4     Zr   0.99477   0.21940   0.07638   1.000
    Zr5     Zr   0.49506   0.21973   0.07624   1.000
    Zr6     Zr   0.25624   0.71836   0.92399   1.000
    Zr7     Zr   0.75617   0.71795   0.92312   1.000
    Zr8     Zr   0.99641   0.22078   0.42374   1.000
    Zr9     Zr   0.49639   0.22076   0.42372   1.000
    Zr10    Zr   0.25665   0.72046   0.57694   1.000
    Zr11    Zr   0.75653   0.72044   0.57678   1.000
    Zr12    Zr   0.50666   0.78064   0.92446   1.000
    Zr13    Zr   0.00000   0.78026   0.92464   1.000
    Zr14    Zr   0.24532   0.28146   0.07664   1.000
    Zr15    Zr   0.74534   0.28114   0.07663   1.000
    N16     N    0.52580   0.55806   0.44614   1.000
    N17     N    0.97777   0.44551   0.55384   1.000
    N18     N    0.47779   0.44549   0.55384   1.000
    N19     N    0.02638   0.55765   0.05366   1.000
    N20     N    0.77618   0.94756   0.44505   1.000
    N21     N    0.34135   0.35792   0.24967   1.000
    N22     N    0.02591   0.55808   0.44629   1.000
    N23     N    0.84125   0.35792   0.24966   1.000
    N24     N    0.27651   0.94604   0.05468   1.000
    N25     N    0.97594   0.44211   0.94676   1.000
    N26     N    0.72767   0.05607   0.55502   1.000
    N27     N    0.77567   0.94598   0.05527   1.000
    N28     N    0.41144   0.85577   0.75074   1.000
    N29     N    0.47584   0.44257   0.94669   1.000
    N30     N    0.27612   0.94755   0.44504   1.000
    N31     N    0.22771   0.05608   0.55502   1.000
    N32     N    0.52665   0.55779   0.05358   1.000
    N33     N    0.59255   0.14632   0.24977   1.000
    N34     N    0.91164   0.85470   0.75077   1.000
    N35     N    0.66173   0.64246   0.74919   1.000
    N36     N    0.09257   0.14630   0.24980   1.000
    N37     N    0.72586   0.05311   0.94538   1.000
    N38     N    0.16242   0.64292   0.74931   1.000
    N39     N    0.22555   0.05328   0.94560   1.000
    C40     C    0.14993   0.87825   0.92105   1.000
    O41     O    0.17504   0.93751   0.92915   1.000
    O42     O    0.09560   0.85701   0.92238   1.000
    O43     O    0.19120   0.82957   0.92072   1.000
    C44     C    0.37766   0.81499   0.98978   1.000
    O45     O    0.42481   0.81429   0.97234   1.000
    O46     O    0.34397   0.85910   0.01211   1.000
    O47     O    0.33532   0.77896   0.97225   1.000
    C48     C    0.40585   0.62131   0.92247   1.000
    O49     O    0.35153   0.64297   0.92264   1.000
    O50     O    0.44600   0.66927   0.92254   1.000
    O51     O    0.42906   0.56085   0.93047   1.000
    C52     C    0.63279   0.68207   0.98777   1.000
    O53     O    0.59740   0.64027   0.01039   1.000
    O54     O    0.67806   0.68211   0.97044   1.000
    O55     O    0.58991   0.71944   0.97087   1.000
    C56     C    0.84934   0.77904   0.85543   1.000
    O57     O    0.81345   0.75399   0.86902   1.000
    O58     O    0.87022   0.80448   0.81997   1.000
    O59     O    0.89768   0.78686   0.87943   1.000
    O60     O    0.83673   0.77129   0.87905   1.000
    C61     C    0.90630   0.62098   0.92251   1.000
    O62     O    0.92938   0.56047   0.93052   1.000
    O63     O    0.85185   0.64267   0.92242   1.000
    O64     O    0.94471   0.66889   0.92265   1.000
    C65     C    0.65061   0.87818   0.91980   1.000
    O66     O    0.59777   0.85702   0.92140   1.000
    O67     O    0.69172   0.82946   0.91951   1.000
    O68     O    0.67560   0.93741   0.92826   1.000
    C69     C    0.13275   0.68206   0.98808   1.000
    O70     O    0.17808   0.68225   0.97094   1.000
    O71     O    0.08821   0.71931   0.97111   1.000
    O72     O    0.09727   0.64022   0.01063   1.000
    C73     C    0.87529   0.81365   0.98993   1.000
    O74     O    0.92153   0.81288   0.97249   1.000
    O75     O    0.84216   0.85822   0.01234   1.000
    O76     O    0.83330   0.77809   0.97215   1.000
    C77     C    0.10183   0.71317   0.85602   1.000
    O78     O    0.15149   0.70637   0.87931   1.000
    O79     O    0.06356   0.74014   0.87029   1.000
    O80     O    0.12195   0.68954   0.81986   1.000
    C81     C    0.34964   0.78200   0.85606   1.000
    O82     O    0.31360   0.75630   0.86987   1.000
    O83     O    0.39973   0.78927   0.87973   1.000
    O84     O    0.37028   0.80680   0.82037   1.000
    C85     C    0.60086   0.71296   0.85573   1.000
    O86     O    0.65081   0.70620   0.87889   1.000
    O87     O    0.56445   0.74000   0.87001   1.000
    O88     O    0.62106   0.68922   0.81964   1.000
    C89     C    0.09910   0.72093   0.64505   1.000
    O90     O    0.12025   0.69468   0.68040   1.000
    O91     O    0.06164   0.74630   0.63123   1.000
    O92     O    0.14926   0.71324   0.62137   1.000
    C93     C    0.12946   0.68496   0.51225   1.000
    O94     O    0.09497   0.64227   0.48960   1.000
    O95     O    0.08562   0.72210   0.52906   1.000
    O96     O    0.17571   0.68502   0.52994   1.000
    C97     C    0.90597   0.62338   0.57861   1.000
    O98     O    0.85171   0.64487   0.57817   1.000
    O99     O    0.92980   0.56321   0.57043   1.000
    O100    O    0.94435   0.67149   0.57873   1.000
    C101    C    0.37513   0.81575   0.51113   1.000
    O102    O    0.34219   0.86014   0.48847   1.000
    O103    O    0.33347   0.78004   0.52838   1.000
    O104    O    0.42312   0.81535   0.52890   1.000
    C105    C    0.87522   0.81575   0.51110   1.000
    O106    O    0.83350   0.78004   0.52832   1.000
    O107    O    0.92129   0.81535   0.52889   1.000
    O108    O    0.84227   0.86015   0.48846   1.000
    C109    C    0.65280   0.88061   0.57893   1.000
    O110    O    0.67756   0.94005   0.57105   1.000
    O111    O    0.59960   0.85916   0.57792   1.000
    O112    O    0.69357   0.83209   0.57945   1.000
    C113    C    0.62938   0.68500   0.51216   1.000
    O114    O    0.58746   0.72213   0.52900   1.000
    O115    O    0.67563   0.68505   0.52981   1.000
    O116    O    0.59488   0.64229   0.48949   1.000
    C117    C    0.84942   0.78209   0.64495   1.000
    O118    O    0.81354   0.75689   0.63110   1.000
    O119    O    0.89781   0.78986   0.62129   1.000
    O120    O    0.83694   0.77428   0.62133   1.000
    O121    O    0.87026   0.80655   0.68078   1.000
    C122    C    0.59903   0.72090   0.64494   1.000
    O123    O    0.64917   0.71322   0.62124   1.000
    O124    O    0.58694   0.72880   0.62120   1.000
    O125    O    0.61998   0.69450   0.68027   1.000
    O126    O    0.56350   0.74629   0.63115   1.000
    C127    C    0.15284   0.88062   0.57895   1.000
    O128    O    0.17760   0.94005   0.57106   1.000
    O129    O    0.19364   0.83210   0.57951   1.000
    O130    O    0.09774   0.85917   0.57794   1.000
    C131    C    0.40598   0.62335   0.57864   1.000
    O132    O    0.35175   0.64485   0.57827   1.000
    O133    O    0.44626   0.67147   0.57872   1.000
    O134    O    0.42982   0.56318   0.57045   1.000
    C135    C    0.34934   0.78212   0.64513   1.000
    O136    O    0.39964   0.78985   0.62141   1.000
    O137    O    0.33691   0.77427   0.62149   1.000
    O138    O    0.37012   0.80691   0.68090   1.000
    O139    O    0.31352   0.75691   0.63129   1.000
    C140    C    0.40371   0.28395   0.35526   1.000
    O141    O    0.38289   0.30885   0.31948   1.000
    O142    O    0.43951   0.25800   0.36924   1.000
    O143    O    0.35386   0.29179   0.37877   1.000
    O144    O    0.41613   0.27609   0.37890   1.000
    C145    C    0.65410   0.22111   0.35515   1.000
    O146    O    0.63349   0.19594   0.31946   1.000
    O147    O    0.69003   0.24653   0.36895   1.000
    O148    O    0.60393   0.21347   0.37889   1.000
    O149    O    0.66665   0.22917   0.37876   1.000
    C150    C    0.87388   0.31857   0.48788   1.000
    O151    O    0.91601   0.28149   0.47088   1.000
    O152    O    0.90850   0.36128   0.51057   1.000
    O153    O    0.82772   0.31858   0.47041   1.000
    C154    C    0.35113   0.12316   0.42110   1.000
    O155    O    0.31035   0.17178   0.42055   1.000
    O156    O    0.40433   0.14450   0.42220   1.000
    O157    O    0.32631   0.06370   0.42900   1.000
    C158    C    0.90369   0.28398   0.35529   1.000
    O159    O    0.93949   0.25803   0.36927   1.000
    O160    O    0.88284   0.30887   0.31951   1.000
    O161    O    0.85384   0.29181   0.37880   1.000
    O162    O    0.91612   0.27611   0.37893   1.000
    C163    C    0.12854   0.18785   0.48894   1.000
    O164    O    0.16155   0.14349   0.51160   1.000
    O165    O    0.17025   0.22367   0.47168   1.000
    O166    O    0.08064   0.18820   0.47127   1.000
    C167    C    0.59767   0.38028   0.42140   1.000
    O168    O    0.65197   0.35889   0.42181   1.000
    O169    O    0.55748   0.33212   0.42137   1.000
    O170    O    0.57381   0.44042   0.42948   1.000
    C171    C    0.15410   0.22112   0.35517   1.000
    O172    O    0.10394   0.21348   0.37891   1.000
    O173    O    0.16666   0.22917   0.37877   1.000
    O174    O    0.13350   0.19594   0.31949   1.000
    O175    O    0.19004   0.24654   0.36896   1.000
    C176    C    0.85114   0.12318   0.42084   1.000
    O177    O    0.81036   0.17180   0.42022   1.000
    O178    O    0.82634   0.06372   0.42888   1.000
    O179    O    0.90435   0.14452   0.42207   1.000
    C180    C    0.09770   0.38028   0.42141   1.000
    O181    O    0.15200   0.35889   0.42181   1.000
    O182    O    0.07386   0.44043   0.42963   1.000
    O183    O    0.05751   0.33213   0.42138   1.000
    C184    C    0.62852   0.18785   0.48892   1.000
    O185    O    0.58062   0.18820   0.47125   1.000
    O186    O    0.67022   0.22368   0.47167   1.000
    O187    O    0.66152   0.14349   0.51158   1.000
    C188    C    0.37388   0.31857   0.48811   1.000
    O189    O    0.40852   0.36127   0.51069   1.000
    O190    O    0.41601   0.28148   0.47116   1.000
    O191    O    0.32773   0.31858   0.47052   1.000
    C192    C    0.90365   0.28236   0.14465   1.000
    O193    O    0.93921   0.25674   0.13083   1.000
    O194    O    0.88279   0.30781   0.18023   1.000
    O195    O    0.85320   0.28965   0.12103   1.000
    O196    O    0.91555   0.27422   0.12097   1.000
    C197    C    0.87095   0.31549   0.01159   1.000
    O198    O    0.91339   0.27882   0.02868   1.000
    O199    O    0.90592   0.35811   0.98930   1.000
    O200    O    0.82504   0.31568   0.02916   1.000
    C201    C    0.62557   0.18462   0.01113   1.000
    O202    O    0.66747   0.22072   0.02836   1.000
    O203    O    0.57812   0.18547   0.02875   1.000
    O204    O    0.65895   0.14033   0.98859   1.000
    C205    C    0.37104   0.31576   0.01154   1.000
    O206    O    0.32508   0.31592   0.02913   1.000
    O207    O    0.40594   0.35844   0.98925   1.000
    O208    O    0.41355   0.27913   0.02860   1.000
    C209    C    0.59518   0.37878   0.07843   1.000
    O210    O    0.64968   0.35683   0.07809   1.000
    O211    O    0.57246   0.43932   0.07023   1.000
    O212    O    0.55510   0.33104   0.07843   1.000
    C213    C    0.15407   0.22112   0.14475   1.000
    O214    O    0.13346   0.19593   0.18033   1.000
    O215    O    0.10350   0.21320   0.12099   1.000
    O216    O    0.16614   0.22871   0.12106   1.000
    O217    O    0.18954   0.24596   0.13102   1.000
    C218    C    0.85071   0.12127   0.07977   1.000
    O219    O    0.90360   0.14263   0.07868   1.000
    O220    O    0.80958   0.16986   0.07986   1.000
    O221    O    0.82586   0.06190   0.07170   1.000
    C222    C    0.35020   0.12194   0.07971   1.000
    O223    O    0.40331   0.14339   0.07859   1.000
    O224    O    0.30912   0.17030   0.07982   1.000
    O225    O    0.32581   0.06236   0.07152   1.000
    C226    C    0.12551   0.18495   0.01119   1.000
    O227    O    0.15881   0.14063   0.98870   1.000
    O228    O    0.07800   0.18561   0.02885   1.000
    O229    O    0.16741   0.22105   0.02838   1.000
    C230    C    0.40374   0.28243   0.14458   1.000
    O231    O    0.43936   0.25688   0.13073   1.000
    O232    O    0.35324   0.28978   0.12099   1.000
    O233    O    0.41568   0.27434   0.12089   1.000
    O234    O    0.38288   0.30785   0.18018   1.000
    C235    C    0.65417   0.22112   0.14473   1.000
    O236    O    0.68961   0.24588   0.13101   1.000
    O237    O    0.63351   0.19594   0.18030   1.000
    O238    O    0.60367   0.21328   0.12093   1.000
    O239    O    0.66624   0.22864   0.12103   1.000
    C240    C    0.09500   0.37867   0.07844   1.000
    O241    O    0.07224   0.43920   0.07026   1.000
    O242    O    0.05492   0.33084   0.07845   1.000
    O243    O    0.14954   0.35686   0.07811   1.000
loop_
    _geom_bond_atom_site_label_1
    _geom_bond_atom_site_label_2
    _geom_bond_distance
    _geom_bond_site_symmetry_2
    _ccdc_geom_bond_type
    C40    O41       1.10644      .   S
    N39    O41       2.17441  1_545   S
    C40    O42       0.97644      .   S
    Zr13   O42       2.06048      .   S
    C40    O43       1.06323      .   S
    Zr6    O43       2.15280      .   S
    C44    O45       0.91873      .   S
    Zr12   O45       1.96766      .   S
    C44    O46       1.10769  1_556   S
    N24    O46       2.17122      .   S
    C44    O47       1.04811      .   S
    Zr6    O47       2.12526      .   S
    C48    O49       0.97118      .   S
    Zr6    O49       2.02060      .   S
    C48    O50       1.05284      .   S
    Zr12   O50       2.13732      .   S
    C48    O51       1.10575      .   S
    N29    O51       2.17386      .   S
    C52    O53       1.11047  1_556   S
    N32    O53       2.17774      .   S
    C52    O54       0.89045      .   S
    Zr7    O54       1.93525      .   S
    C52    O55       1.05164      .   S
    Zr12   O55       2.13155      .   S
    C56    O57       0.82364      .   S
    Zr7    O57       1.86375      .   S
    C56    O58       1.11528      .   S
    N34    O58       2.18426      .   S
    C56    O59       1.04508      .   S
    Zr13   O59       2.10144  1_455   S
    C56    O60       0.69096      .   S
    Zr7    O60       2.02039      .   S
    C61    O62       1.10574      .   S
    N25    O62       2.17388      .   S
    C61    O63       0.97338      .   S
    Zr7    O63       2.02421      .   S
    C61    O64       1.03364      .   S
    Zr13   O64       2.09593  1_455   S
    C65    O66       0.95336      .   S
    Zr12   O66       1.99958      .   S
    C65    O67       1.06192      .   S
    Zr7    O67       2.15282      .   S
    C65    O68       1.10708      .   S
    N37    O68       2.17562  1_545   S
    C69    O70       0.88855      .   S
    Zr6    O70       1.93065      .   S
    C69    O71       1.07016      .   S
    Zr13   O71       2.18449      .   S
    C69    O72       1.11061  1_556   S
    N19    O72       2.17772      .   S
    C73    O74       0.90572      .   S
    Zr13   O74       1.92383  1_455   S
    C73    O75       1.10964  1_556   S
    N27    O75       2.17742      .   S
    C73    O76       1.04252      .   S
    Zr7    O76       2.11469      .   S
    C77    O78       1.04623      .   S
    Zr6    O78       2.13513      .   S
    C77    O79       0.87050      .   S
    Zr13   O79       1.93925      .   S
    C77    O80       1.11349      .   S
    N38    O80       2.18166      .   S
    C81    O82       0.83400      .   S
    Zr6    O82       1.87555      .   S
    C81    O83       1.06069      .   S
    Zr12   O83       2.15843      .   S
    C81    O84       1.11562      .   S
    N28    O84       2.18475      .   S
    C85    O86       1.04776      .   S
    Zr7    O86       2.13616      .   S
    C85    O87       0.84905      .   S
    Zr12   O87       1.89398      .   S
    C85    O88       1.11287      .   S
    N35    O88       2.18116      .   S
    C89    O90       1.11484      .   S
    N38    O90       2.18250      .   S
    C89    O91       0.84045      .   S
    Zr1    O91       1.90399      .   S
    C89    O92       1.06354      .   S
    Zr10   O92       2.16653      .   S
    C93    O94       1.10987      .   S
    N22    O94       2.17758      .   S
    C93    O95       1.06011      .   S
    Zr1    O95       2.17474      .   S
    C93    O96       0.90717      .   S
    Zr10   O96       1.95384      .   S
    C97    O98       0.96926      .   S
    Zr11   O98       2.02076      .   S
    C97    O99       1.10565      .   S
    N17    O99       2.17396      .   S
    C97    O100      1.03611      .   S
    Zr1    O100      2.09743  1_455   S
    C101   O102      1.10911      .   S
    N30    O102      2.17590      .   S
    C101   O103      1.03618      .   S
    Zr10   O103      2.10493      .   S
    C101   O104      0.93301      .   S
    Zr0    O104      1.98585      .   S
    C105   O106      1.03635      .   S
    Zr11   O106      2.10491      .   S
    C105   O107      0.90606      .   S
    Zr1    O107      1.92019  1_455   S
    C105   O108      1.10905      .   S
    N20    O108      2.17579      .   S
    C109   O110      1.10665      .   S
    N26    O110      2.17516  1_545   S
    C109   O111      0.95989      .   S
    Zr0    O111      2.00940      .   S
    C109   O112      1.05597      .   S
    Zr11   O112      2.14185      .   S
    C113   O114      1.03899      .   S
    Zr0    O114      2.11425      .   S
    C113   O115      0.90662      .   S
    Zr11   O115      1.95265      .   S
    C113   O116      1.11037      .   S
    N16    O116      2.17889      .   S
    C117   O118      0.82625      .   S
    Zr11   O118      1.86302      .   S
    C117   O119      1.04259      .   S
    Zr1    O119      2.09703  1_455   S
    C117   O120      0.68892      .   S
    Zr11   O120      2.02478      .   S
    C117   O121      1.11508      .   S
    N34    O121      2.18414      .   S
    C122   O123      1.06360      .   S
    Zr11   O123      2.16652      .   S
    C122   O124      0.69000      .   S
    Zr0    O124      2.00347      .   S
    C122   O125      1.11456      .   S
    N35    O125      2.18213      .   S
    C122   O126      0.81694      .   S
    Zr0    O126      1.85347      .   S
    C127   O128      1.10667      .   S
    N31    O128      2.17518  1_545   S
    C127   O129      1.05614      .   S
    Zr10   O129      2.14206      .   S
    C127   O130      0.98940      .   S
    Zr1    O130      2.08376      .   S
    C131   O132      0.96887      .   S
    Zr10   O132      2.02023      .   S
    C131   O133      1.05627      .   S
    Zr0    O133      2.14217      .   S
    C131   O134      1.10566      .   S
    N18    O134      2.17392      .   S
    C135   O136      1.06847      .   S
    Zr0    O136      2.17746      .   S
    C135   O137      0.68928      .   S
    Zr10   O137      2.02293      .   S
    C135   O138      1.11550      .   S
    N28    O138      2.18472      .   S
    C135   O139      0.82540      .   S
    Zr10   O139      1.86253      .   S
    C140   O141      1.11460      .   S
    N21    O141      2.18304      .   S
    C140   O142      0.82736      .   S
    Zr9    O142      1.86454      .   S
    C140   O143      1.05695      .   S
    Zr2    O143      2.15628      .   S
    C140   O144      0.68890      .   S
    Zr9    O144      2.02752      .   S
    C145   O146      1.11505      .   S
    N33    O146      2.18429      .   S
    C145   O147      0.82804      .   S
    Zr3    O147      1.86736      .   S
    C145   O148      1.06674      .   S
    Zr9    O148      2.17252      .   S
    C145   O149      0.68984      .   S
    Zr3    O149      2.03001      .   S
    C150   O151      1.04288      .   S
    Zr8    O151      2.11228      .   S
    C150   O152      1.11186      .   S
    N17    O152      2.17923      .   S
    C150   O153      0.90288      .   S
    Zr3    O153      1.94904      .   S
    C154   O155      1.05723      .   S
    Zr2    O155      2.14431      .   S
    C154   O156      0.95939      .   S
    Zr9    O156      2.00870      .   S
    C154   O157      1.10753      .   S
    N30    O157      2.17759  1_565   S
    C158   O159      0.82746      .   S
    Zr8    O159      1.86466      .   S
    C158   O160      1.11487      .   S
    N23    O160      2.18391      .   S
    C158   O161      1.05688      .   S
    Zr3    O161      2.15611      .   S
    C158   O162      0.68890      .   S
    Zr8    O162      2.02775      .   S
    C163   O164      1.10923      .   S
    N31    O164      2.17663      .   S
    C163   O165      1.03805      .   S
    Zr2    O165      2.10824      .   S
    C163   O166      0.93031      .   S
    Zr8    O166      1.97995  1_655   S
    C167   O168      0.96928      .   S
    Zr3    O168      2.02006      .   S
    C167   O169      1.05580      .   S
    Zr9    O169      2.14135      .   S
    C167   O170      1.10485      .   S
    N16    O170      2.17371      .   S
    C171   O172      1.06672      .   S
    Zr8    O172      2.17244  1_655   S
    C171   O173      0.68966      .   S
    Zr2    O173      2.02970      .   S
    C171   O174      1.11501      .   S
    N36    O174      2.18415      .   S
    C171   O175      0.82796      .   S
    Zr2    O175      1.86692      .   S
    C176   O177      1.05732      .   S
    Zr3    O177      2.14475      .   S
    C176   O178      1.10823      .   S
    N20    O178      2.17830  1_565   S
    C176   O179      0.95949      .   S
    Zr8    O179      2.00874      .   S
    C180   O181      0.96933      .   S
    Zr2    O181      2.02006      .   S
    C180   O182      1.10553      .   S
    N22    O182      2.17357      .   S
    C180   O183      1.05576      .   S
    Zr8    O183      2.14131  1_655   S
    C184   O185      0.93026      .   S
    Zr9    O185      1.97986      .   S
    C184   O186      1.03790      .   S
    Zr3    O186      2.10793      .   S
    C184   O187      1.10926      .   S
    N26    O187      2.17678      .   S
    C188   O189      1.11011      .   S
    N18    O189      2.17753      .   S
    C188   O190      1.04222      .   S
    Zr9    O190      2.11738      .   S
    C188   O191      0.90452      .   S
    Zr2    O191      1.95114      .   S
    C192   O193      0.82077      .   S
    Zr4    O193      1.85624      .   S
    C192   O194      1.11439      .   S
    N23    O194      2.18209      .   S
    C192   O195      1.06297      .   S
    Zr15   O195      2.16819      .   S
    C192   O196      0.68906      .   S
    Zr4    O196      2.01161      .   S
    C197   O198      1.04208      .   S
    Zr4    O198      2.11878      .   S
    C197   O199      1.11053  1_554   S
    N25    O199      2.17832      .   S
    C197   O200      0.90297      .   S
    Zr15   O200      1.94903      .   S
    C201   O202      1.03992      .   S
    Zr15   O202      2.11172      .   S
    C201   O203      0.92552      .   S
    Zr5    O203      1.97758      .   S
    C201   O204      1.11047  1_554   S
    N37    O204      2.17908      .   S
    C205   O206      0.90390      .   S
    Zr14   O206      1.95016      .   S
    C205   O207      1.11072  1_554   S
    N29    O207      2.17866      .   S
    C205   O208      1.04215      .   S
    Zr5    O208      2.11895      .   S
    C209   O210      0.97586      .   S
    Zr15   O210      2.02850      .   S
    C209   O211      1.10529      .   S
    N32    O211      2.17351      .   S
    C209   O212      1.04907      .   S
    Zr5    O212      2.13175      .   S
    C213   O214      1.11518      .   S
    N36    O214      2.18384      .   S
    C213   O215      1.06996      .   S
    Zr4    O215      2.17937  1_655   S
    C213   O216      0.68946      .   S
    Zr14   O216      2.00642      .   S
    C213   O217      0.81840      .   S
    Zr14   O217      1.85405      .   S
    C218   O219      0.95487      .   S
    Zr4    O219      2.00363      .   S
    C218   O220      1.06059      .   S
    Zr15   O220      2.14725      .   S
    C218   O221      1.10628      .   S
    N27    O221      2.17438  1_565   S
    C222   O223      0.95884      .   S
    Zr5    O223      2.00645      .   S
    C222   O224      1.05703      .   S
    Zr14   O224      2.14186      .   S
    C222   O225      1.10725      .   S
    N24    O225      2.17705  1_565   S
    C226   O227      1.10941  1_554   S
    N39    O227      2.17737      .   S
    C226   O228      0.92680      .   S
    Zr4    O228      1.97811  1_655   S
    C226   O229      1.03963      .   S
    Zr14   O229      2.11170      .   S
    C230   O231      0.82120      .   S
    Zr5    O231      1.85713      .   S
    C230   O232      1.06317      .   S
    Zr14   O232      2.16804      .   S
    C230   O233      0.68923      .   S
    Zr5    O233      2.01282      .   S
    C230   O234      1.11480      .   S
    N21    O234      2.18315      .   S
    C235   O236      0.81721      .   S
    Zr15   O236      1.85236      .   S
    C235   O237      1.11528      .   S
    N33    O237      2.18391      .   S
    C235   O238      1.06962      .   S
    Zr5    O238      2.17905      .   S
    C235   O239      0.68943      .   S
    Zr15   O239      2.00346      .   S
    C240   O241      1.10517      .   S
    N19    O241      2.17335      .   S
    C240   O242      1.05037      .   S
    Zr4    O242      2.13454  1_655   S
    C240   O243      0.97549      .   S
    Zr14   O243      2.02710      .   S
