# CIF file generated by openbabel 2.4.90, see http://openbabel.sf.net
data_I
_chemical_name_common ''
_cell_length_a 18.795
_cell_length_b 18.726
_cell_length_c 18.724
_cell_angle_alpha 60.224
_cell_angle_beta 60.401
_cell_angle_gamma 60.366
_space_group_name_H-M_alt 'P 1'
_space_group_name_Hall 'P 1'
loop_
    _symmetry_equiv_pos_as_xyz
    x,y,z
loop_
    _atom_site_label
    _atom_site_type_symbol
    _atom_site_fract_x
    _atom_site_fract_y
    _atom_site_fract_z
    _atom_site_occupancy
    C0      C    0.13597   0.13673   0.86404   1.000
    C1      C    0.36447   0.36368   0.63541   1.000
    C2      C    0.86400   0.86326   0.13583   1.000
    C3      C    0.63542   0.63621   0.36456   1.000
    C4      C    0.13552   0.86358   0.86350   1.000
    C5      C    0.36494   0.63588   0.63588   1.000
    C6      C    0.86445   0.13645   0.13628   1.000
    C7      C    0.63497   0.36397   0.36410   1.000
    C8      C    0.13600   0.86405   0.13666   1.000
    C9      C    0.36444   0.63544   0.36372   1.000
    C10     C    0.86397   0.13589   0.86320   1.000
    C11     C    0.63542   0.36454   0.63618   1.000
