# CIF file generated by openbabel 2.4.90, see http://openbabel.sf.net
data_I
_chemical_name_common ''
_cell_length_a 13.144
_cell_length_b 13.126
_cell_length_c 13.66
_cell_angle_alpha 89.933
_cell_angle_beta 89.933
_cell_angle_gamma 89.989
_space_group_name_H-M_alt 'P 1'
_space_group_name_Hall 'P 1'
loop_
    _symmetry_equiv_pos_as_xyz
    x,y,z
loop_
    _atom_site_label
    _atom_site_type_symbol
    _atom_site_fract_x
    _atom_site_fract_y
    _atom_site_fract_z
    _atom_site_occupancy
    C0      C    0.82580   0.33292   0.75044   1.000
    C1      C    0.67554   0.16852   0.75137   1.000
    C2      C    0.66743   0.32510   0.25070   1.000
    C3      C    0.83115   0.17422   0.25102   1.000
    C4      C    0.17416   0.66704   0.24952   1.000
    C5      C    0.32442   0.83145   0.24857   1.000
    C6      C    0.33249   0.67483   0.74925   1.000
    C7      C    0.16885   0.82578   0.74897   1.000
    C8      C    0.08281   0.31129   0.79432   1.000
    C9      C    0.08619   0.35677   0.67149   1.000
    C10     C    0.15908   0.42137   0.76546   1.000
    C11     C    0.04097   0.79386   0.97700   1.000
    C12     C    0.11786   0.85597   0.06829   1.000
    C13     C    0.00581   0.78965   0.10582   1.000
    C14     C    0.41724   0.18854   0.79284   1.000
    C15     C    0.41565   0.14254   0.67025   1.000
    C16     C    0.34235   0.07761   0.76399   1.000
    C17     C    0.45980   0.70616   0.97670   1.000
    C18     C    0.38294   0.64370   0.06805   1.000
    C19     C    0.49440   0.71090   0.10544   1.000
    C20     C    0.68848   0.58312   0.29420   1.000
    C21     C    0.64313   0.58636   0.17143   1.000
    C22     C    0.57817   0.65896   0.26554   1.000
    C23     C    0.20605   0.54019   0.47729   1.000
    C24     C    0.14390   0.61701   0.56871   1.000
    C25     C    0.21068   0.50504   0.60596   1.000
    C26     C    0.81033   0.91682   0.29468   1.000
    C27     C    0.85569   0.91383   0.17183   1.000
    C28     C    0.92043   0.84072   0.26572   1.000
    C29     C    0.29292   0.95892   0.47500   1.000
    C30     C    0.35587   0.88239   0.56614   1.000
    C31     C    0.28952   0.99458   0.60350   1.000
    C32     C    0.91717   0.68873   0.20566   1.000
    C33     C    0.91379   0.64326   0.32848   1.000
    C34     C    0.84086   0.57868   0.23452   1.000
    C35     C    0.95900   0.20615   0.02289   1.000
    C36     C    0.88215   0.14402   0.93168   1.000
    C37     C    0.99418   0.21037   0.89416   1.000
    C38     C    0.58279   0.81138   0.20714   1.000
    C39     C    0.58434   0.85739   0.32972   1.000
    C40     C    0.65767   0.92232   0.23600   1.000
    C41     C    0.54020   0.29371   0.02329   1.000
    C42     C    0.61704   0.35620   0.93195   1.000
    C43     C    0.50559   0.28900   0.89455   1.000
    C44     C    0.31149   0.41681   0.70574   1.000
    C45     C    0.35684   0.41357   0.82850   1.000
    C46     C    0.42182   0.34099   0.73440   1.000
    C47     C    0.79394   0.45980   0.52262   1.000
    C48     C    0.85606   0.38296   0.43121   1.000
    C49     C    0.78929   0.49493   0.39395   1.000
    C50     C    0.18967   0.08318   0.70527   1.000
    C51     C    0.14433   0.08618   0.82813   1.000
    C52     C    0.07958   0.15928   0.73423   1.000
    C53     C    0.70709   0.04104   0.52499   1.000
    C54     C    0.64412   0.11758   0.43380   1.000
    C55     C    0.71047   0.00539   0.39648   1.000
    C56     C    0.12065   0.62050   0.86075   1.000
    C57     C    0.05643   0.55812   0.93210   1.000
    C58     C    0.99137   0.48048   0.89843   1.000
    C59     C    0.06409   0.57833   0.03323   1.000
    C60     C    0.08923   0.37951   0.74868   1.000
    C61     C    0.06822   0.79077   0.05283   1.000
    C62     C    0.38060   0.88009   0.86016   1.000
    C63     C    0.44414   0.94219   0.93183   1.000
    C64     C    0.50931   0.01995   0.89847   1.000
    C65     C    0.43562   0.92151   0.03287   1.000
    C66     C    0.41198   0.12009   0.74750   1.000
    C67     C    0.43219   0.70920   0.05238   1.000
    C68     C    0.37898   0.61928   0.36046   1.000
    C69     C    0.44161   0.55575   0.43198   1.000
    C70     C    0.51963   0.49102   0.39845   1.000
    C71     C    0.42134   0.56395   0.53307   1.000
    C72     C    0.62036   0.58923   0.24866   1.000
    C73     C    0.20917   0.56754   0.55298   1.000
    C74     C    0.11928   0.87909   0.36030   1.000
    C75     C    0.05733   0.94326   0.43193   1.000
    C76     C    0.97973   0.00852   0.39854   1.000
    C77     C    0.07836   0.93565   0.53290   1.000
    C78     C    0.87845   0.91063   0.24900   1.000
    C79     C    0.29049   0.93187   0.55087   1.000
    C80     C    0.87930   0.37948   0.13922   1.000
    C81     C    0.94347   0.44191   0.06786   1.000
    C82     C    0.00854   0.51952   0.10154   1.000
    C83     C    0.93583   0.42165   0.96673   1.000
    C84     C    0.91073   0.62052   0.25100   1.000
    C85     C    0.93176   0.20924   0.94715   1.000
    C86     C    0.61940   0.11985   0.13978   1.000
    C87     C    0.55589   0.05770   0.06810   1.000
    C88     C    0.49072   0.97994   0.10150   1.000
    C89     C    0.56440   0.07842   0.96709   1.000
    C90     C    0.58803   0.87984   0.25242   1.000
    C91     C    0.56780   0.29068   0.94761   1.000
    C92     C    0.62101   0.38073   0.63951   1.000
    C93     C    0.55835   0.44422   0.56797   1.000
    C94     C    0.48034   0.50897   0.60151   1.000
    C95     C    0.57864   0.43604   0.46688   1.000
    C96     C    0.37961   0.41071   0.75129   1.000
    C97     C    0.79079   0.43244   0.44694   1.000
    C98     C    0.88072   0.12091   0.63958   1.000
    C99     C    0.94267   0.05673   0.56804   1.000
    C100    C    0.02028   0.99147   0.60144   1.000
    C101    C    0.92163   0.06434   0.46708   1.000
    C102    C    0.12156   0.08937   0.75095   1.000
    C103    C    0.70951   0.06810   0.44912   1.000
    C104    C    0.98140   0.46353   0.76886   1.000
    C105    C    0.14891   0.67901   0.06658   1.000
    C106    C    0.52040   0.03715   0.76896   1.000
    C107    C    0.35079   0.82050   0.06560   1.000
    C108    C    0.53692   0.48087   0.26890   1.000
    C109    C    0.32050   0.64870   0.56626   1.000
    C110    C    0.96214   0.01871   0.26904   1.000
    C111    C    0.17923   0.85081   0.56580   1.000
    C112    C    0.01853   0.53646   0.23111   1.000
    C113    C    0.85102   0.32096   0.93338   1.000
    C114    C    0.47960   0.96277   0.23101   1.000
    C115    C    0.64925   0.17942   0.93435   1.000
    C116    C    0.46303   0.51909   0.73106   1.000
    C117    C    0.67947   0.35126   0.43370   1.000
    C118    C    0.03786   0.98129   0.73094   1.000
    C119    C    0.82076   0.14917   0.43418   1.000
    C120    C    0.08403   0.70656   0.83764   1.000
    C121    C    0.20388   0.58065   0.83420   1.000
    C122    C    0.41767   0.79426   0.83710   1.000
    C123    C    0.29753   0.91998   0.83334   1.000
    C124    C    0.29330   0.58198   0.33763   1.000
    C125    C    0.41831   0.70268   0.33349   1.000
    C126    C    0.20506   0.91598   0.33705   1.000
    C127    C    0.07956   0.79581   0.33388   1.000
    C128    C    0.91596   0.29343   0.16233   1.000
    C129    C    0.79606   0.41928   0.16573   1.000
    C130    C    0.58229   0.20566   0.16285   1.000
    C131    C    0.70248   0.08000   0.16662   1.000
    C132    C    0.70669   0.41803   0.66233   1.000
    C133    C    0.58169   0.29733   0.66647   1.000
    C134    C    0.79494   0.08403   0.66291   1.000
    C135    C    0.92044   0.20420   0.66607   1.000
    O136    O    0.94538   0.20770   0.98502   1.000
    O137    O    0.55400   0.29219   0.98545   1.000
    O138    O    0.39320   0.87100   0.04923   1.000
    O139    O    0.46317   0.95073   0.06718   1.000
    O140    O    0.43988   0.93185   0.98235   1.000
    O141    O    0.10650   0.62867   0.04990   1.000
    O142    O    0.03631   0.54893   0.06739   1.000
    O143    O    0.06026   0.56822   0.98266   1.000
    O144    O    0.39149   0.76485   0.05899   1.000
    O145    O    0.40756   0.67645   0.06021   1.000
    O146    O    0.46329   0.71005   0.07891   1.000
    O147    O    0.44599   0.70768   0.01454   1.000
    O148    O    0.10857   0.73489   0.05970   1.000
    O149    O    0.09304   0.82337   0.06056   1.000
    O150    O    0.03701   0.79021   0.07932   1.000
    O151    O    0.05460   0.79231   0.01491   1.000
    O152    O    0.33761   0.82597   0.15708   1.000
    O153    O    0.16154   0.67303   0.15805   1.000
    O154    O    0.97600   0.48071   0.08470   1.000
    O155    O    0.91139   0.41069   0.10354   1.000
    O156    O    0.93965   0.43178   0.01729   1.000
    O157    O    0.52331   0.01882   0.08480   1.000
    O158    O    0.58764   0.08877   0.10394   1.000
    O159    O    0.56015   0.06806   0.01759   1.000
    O160    O    0.48516   0.97135   0.16625   1.000
    O161    O    0.01353   0.52799   0.16633   1.000
    O162    O    0.89763   0.33646   0.15077   1.000
    O163    O    0.83768   0.39938   0.15247   1.000
    O164    O    0.60084   0.16275   0.15131   1.000
    O165    O    0.66094   0.09992   0.15320   1.000
    O166    O    0.87355   0.23383   0.20667   1.000
    O167    O    0.62486   0.26538   0.20677   1.000
    O168    O    0.73174   0.37219   0.20821   1.000
    O169    O    0.76681   0.12711   0.20882   1.000
    O170    O    0.63175   0.58780   0.21005   1.000
    O171    O    0.86707   0.91223   0.21041   1.000
    O172    O    0.91395   0.65463   0.22833   1.000
    O173    O    0.58541   0.84561   0.22978   1.000
    O174    O    0.40201   0.89711   0.23979   1.000
    O175    O    0.53382   0.92130   0.24171   1.000
    O176    O    0.09635   0.60175   0.24031   1.000
    O177    O    0.96463   0.57849   0.24105   1.000
    O178    O    0.87579   0.59960   0.24276   1.000
    O179    O    0.62285   0.90108   0.24421   1.000
    O180    O    0.24929   0.74925   0.24904   1.000
    O181    O    0.37136   0.76706   0.29103   1.000
    O182    O    0.26474   0.87372   0.29281   1.000
    O183    O    0.59927   0.62410   0.25710   1.000
    O184    O    0.57864   0.53505   0.25878   1.000
    O185    O    0.65442   0.58617   0.27143   1.000
    O186    O    0.89944   0.87568   0.25736   1.000
    O187    O    0.92029   0.96467   0.25902   1.000
    O188    O    0.84439   0.91372   0.27184   1.000
    O189    O    0.12686   0.73143   0.29170   1.000
    O190    O    0.23373   0.62451   0.29357   1.000
    O191    O    0.74929   0.24966   0.25086   1.000
    O192    O    0.60217   0.40299   0.25980   1.000
    O193    O    0.67345   0.33818   0.34220   1.000
    O194    O    0.91226   0.63189   0.28974   1.000
    O195    O    0.89664   0.09647   0.26003   1.000
    O196    O    0.82595   0.16169   0.34260   1.000
    O197    O    0.58619   0.86862   0.29107   1.000
    O198    O    0.52828   0.48595   0.33367   1.000
    O199    O    0.97093   0.01361   0.33379   1.000
    O200    O    0.39864   0.66098   0.34697   1.000
    O201    O    0.09942   0.83745   0.34709   1.000
    O202    O    0.16217   0.89753   0.34867   1.000
    O203    O    0.33614   0.60063   0.34904   1.000
    O204    O    0.08830   0.91117   0.39611   1.000
    O205    O    0.41030   0.58752   0.39622   1.000
    O206    O    0.79004   0.46368   0.42045   1.000
    O207    O    0.70999   0.03675   0.42280   1.000
    O208    O    0.48062   0.52339   0.41521   1.000
    O209    O    0.54914   0.46353   0.43266   1.000
    O210    O    0.01853   0.97589   0.41523   1.000
    O211    O    0.95068   0.03643   0.43281   1.000
    O212    O    0.82343   0.40770   0.43907   1.000
    O213    O    0.06784   0.93945   0.48241   1.000
    O214    O    0.43148   0.55985   0.48252   1.000
    O215    O    0.73513   0.39185   0.44032   1.000
    O216    O    0.62905   0.39365   0.45029   1.000
    O217    O    0.67682   0.09284   0.44146   1.000
    O218    O    0.76513   0.10863   0.44165   1.000
    O219    O    0.87119   0.10675   0.45063   1.000
    O220    O    0.79237   0.44612   0.48478   1.000
    O221    O    0.70830   0.05457   0.48705   1.000
    O222    O    0.56850   0.44013   0.51742   1.000
    O223    O    0.93215   0.06053   0.51756   1.000
    O224    O    0.29171   0.94539   0.51293   1.000
    O225    O    0.20761   0.55386   0.51513   1.000
    O226    O    0.12880   0.89323   0.54935   1.000
    O227    O    0.04932   0.96356   0.56717   1.000
    O228    O    0.37092   0.60633   0.54966   1.000
    O229    O    0.45084   0.53646   0.56729   1.000
    O230    O    0.23486   0.89134   0.55833   1.000
    O231    O    0.32318   0.90713   0.55850   1.000
    O232    O    0.29000   0.96322   0.57718   1.000
    O233    O    0.26484   0.60812   0.55962   1.000
    O234    O    0.17654   0.59227   0.56084   1.000
    O235    O    0.20993   0.53629   0.57947   1.000
    O236    O    0.17404   0.83830   0.65738   1.000
    O237    O    0.32650   0.66177   0.65775   1.000
    O238    O    0.51935   0.47659   0.58474   1.000
    O239    O    0.58968   0.41248   0.60374   1.000
    O240    O    0.98147   0.02410   0.58474   1.000
    O241    O    0.91170   0.08882   0.60381   1.000
    O242    O    0.02907   0.98638   0.66619   1.000
    O243    O    0.47169   0.51403   0.66629   1.000
    O244    O    0.66385   0.39938   0.65092   1.000
    O245    O    0.60135   0.33903   0.65299   1.000
    O246    O    0.83783   0.10247   0.65124   1.000
    O247    O    0.90058   0.16255   0.65283   1.000
    O248    O    0.76625   0.37548   0.70638   1.000
    O249    O    0.73524   0.12628   0.70714   1.000
    O250    O    0.87312   0.26856   0.70826   1.000
    O251    O    0.62862   0.23293   0.70892   1.000
    O252    O    0.41382   0.13131   0.70888   1.000
    O253    O    0.08771   0.36814   0.71008   1.000
    O254    O    0.15562   0.08628   0.72811   1.000
    O255    O    0.34555   0.41376   0.72852   1.000
    O256    O    0.10335   0.90354   0.73995   1.000
    O257    O    0.07971   0.03533   0.74094   1.000
    O258    O    0.39776   0.59696   0.74015   1.000
    O259    O    0.42132   0.46490   0.74117   1.000
    O260    O    0.10057   0.12433   0.74259   1.000
    O261    O    0.40072   0.37585   0.74284   1.000
    O262    O    0.37716   0.09885   0.75574   1.000
    O263    O    0.46619   0.07862   0.75823   1.000
    O264    O    0.41461   0.15431   0.77017   1.000
    O265    O    0.12416   0.40044   0.75707   1.000
    O266    O    0.03532   0.42152   0.75877   1.000
    O267    O    0.08602   0.34540   0.77150   1.000
    O268    O    0.25067   0.75030   0.74911   1.000
    O269    O    0.23319   0.87288   0.79115   1.000
    O270    O    0.12644   0.76617   0.79330   1.000
    O271    O    0.26819   0.62774   0.79172   1.000
    O272    O    0.37508   0.73454   0.79317   1.000
    O273    O    0.75067   0.25072   0.75090   1.000
    O274    O    0.90360   0.39823   0.75965   1.000
    O275    O    0.83841   0.32694   0.84191   1.000
    O276    O    0.13294   0.08778   0.78954   1.000
    O277    O    0.36823   0.41214   0.78990   1.000
    O278    O    0.59797   0.10284   0.76016   1.000
    O279    O    0.66239   0.17397   0.84286   1.000
    O280    O    0.98639   0.47201   0.83364   1.000
    O281    O    0.51486   0.02855   0.83371   1.000
    O282    O    0.33906   0.90003   0.84675   1.000
    O283    O    0.16226   0.60058   0.84747   1.000
    O284    O    0.39913   0.83717   0.84863   1.000
    O285    O    0.10234   0.66353   0.84919   1.000
    O286    O    0.41236   0.91114   0.89599   1.000
    O287    O    0.08854   0.58931   0.89642   1.000
    O288    O    0.96297   0.20981   0.92065   1.000
    O289    O    0.53670   0.28984   0.92108   1.000
    O290    O    0.02390   0.51930   0.91526   1.000
    O291    O    0.96360   0.45106   0.93258   1.000
    O292    O    0.47672   0.98107   0.91515   1.000
    O293    O    0.53686   0.04918   0.93278   1.000
    O294    O    0.90695   0.17663   0.93941   1.000
    O295    O    0.59242   0.32344   0.93978   1.000
    O296    O    0.89139   0.26510   0.94026   1.000
    O297    O    0.89342   0.37130   0.95005   1.000
    O298    O    0.60852   0.23505   0.94098   1.000
    O299    O    0.60682   0.12892   0.95072   1.000
loop_
    _geom_bond_atom_site_label_1
    _geom_bond_atom_site_label_2
    _geom_bond_distance
    _geom_bond_site_symmetry_2
    _ccdc_geom_bond_type
    C35    O136      0.54796  1_554   S
    C85    O136      0.54796      .   S
    C41    O137      0.54798  1_554   S
    C91    O137      0.54798      .   S
    C65    O138      0.89430      .   S
    C107   O138      0.89430      .   S
    C65    O139      0.70627      .   S
    C88    O139      0.70627      .   S
    C65    O140      0.70533  1_554   S
    C63    O140      0.70533      .   S
    C59    O141      0.89444      .   S
    C105   O141      0.89444      .   S
    C59    O142      0.70651      .   S
    C82    O142      0.70651      .   S
    C59    O143      0.70535  1_554   S
    C57    O143      0.70535      .   S
    C67    O144      0.90979      .   S
    C107   O144      0.90979      .   S
    C67    O145      0.54853      .   S
    C18    O145      0.54853      .   S
    C67    O146      0.54679      .   S
    C19    O146      0.54679      .   S
    C67    O147      0.54800      .   S
    C17    O147      0.54800  1_556   S
    C61    O148      0.90982      .   S
    C105   O148      0.90982      .   S
    C61    O149      0.54855      .   S
    C12    O149      0.54855      .   S
    C61    O150      0.54677      .   S
    C13    O150      0.54677      .   S
    C61    O151      0.54856      .   S
    C11    O151      0.54856  1_556   S
    C107   O152      1.26357      .   S
    C5     O152      1.26357      .   S
    C105   O153      1.26300      .   S
    C4     O153      1.26300      .   S
    C81    O154      0.70417      .   S
    C82    O154      0.70417  1_455   S
    C81    O155      0.76313      .   S
    C80    O155      0.76313      .   S
    C81    O156      0.70540      .   S
    C83    O156      0.70540  1_556   S
    C87    O157      0.70392      .   S
    C88    O157      0.70392  1_565   S
    C87    O158      0.76237      .   S
    C86    O158      0.76237      .   S
    C87    O159      0.70517      .   S
    C89    O159      0.70517  1_556   S
    C88    O160      0.89448      .   S
    C114   O160      0.89448      .   S
    C82    O161      0.89454      .   S
    C112   O161      0.89454      .   S
    C80    O162      0.63377      .   S
    C128   O162      0.63377      .   S
    C80    O163      0.63257      .   S
    C129   O163      0.63257      .   S
    C86    O164      0.63368      .   S
    C130   O164      0.63368      .   S
    C86    O165      0.63259      .   S
    C131   O165      0.63259      .   S
    C128   O166      1.13491      .   S
    C3     O166      1.13491      .   S
    C130   O167      1.13563      .   S
    C2     O167      1.13563      .   S
    C129   O168      1.19654      .   S
    C2     O168      1.19654      .   S
    C131   O169      1.19660      .   S
    C3     O169      1.19660      .   S
    C21    O170      0.54847      .   S
    C72    O170      0.54847      .   S
    C27    O171      0.54843      .   S
    C78    O171      0.54843      .   S
    C32    O172      0.54570      .   S
    C84    O172      0.54570      .   S
    C38    O173      0.54685      .   S
    C90    O173      0.54685      .   S
    C114   O174      1.34052      .   S
    C5     O174      1.34052      .   S
    C114   O175      0.90844      .   S
    C90    O175      0.90844      .   S
    C112   O176      1.34065      .   S
    C4     O176      1.34065      .   S
    C112   O177      0.90805  1_455   S
    C84    O177      0.90805      .   S
    C34    O178      0.54694      .   S
    C84    O178      0.54694      .   S
    C40    O179      0.54735      .   S
    C90    O179      0.54735      .   S
    C5     O180      1.46284      .   S
    C4     O180      1.46284      .   S
    C5     O181      1.19619      .   S
    C125   O181      1.19619      .   S
    C5     O182      1.13481      .   S
    C126   O182      1.13481      .   S
    C72    O183      0.54737      .   S
    C22    O183      0.54737      .   S
    C72    O184      0.90848      .   S
    C108   O184      0.90848      .   S
    C72    O185      0.54686      .   S
    C20    O185      0.54686      .   S
    C78    O186      0.54733      .   S
    C28    O186      0.54733      .   S
    C78    O187      0.90828      .   S
    C110   O187      0.90828  1_545   S
    C78    O188      0.54690      .   S
    C26    O188      0.54690      .   S
    C4     O189      1.19700      .   S
    C127   O189      1.19700      .   S
    C4     O190      1.13446      .   S
    C124   O190      1.13446      .   S
    C2     O191      1.46216      .   S
    C3     O191      1.46216      .   S
    C2     O192      1.34012      .   S
    C108   O192      1.34012      .   S
    C2     O193      1.26440      .   S
    C117   O193      1.26440      .   S
    C84    O194      0.55039      .   S
    C33    O194      0.55039      .   S
    C3     O195      1.34074      .   S
    C110   O195      1.34074      .   S
    C3     O196      1.26332      .   S
    C119   O196      1.26332      .   S
    C90    O197      0.54848      .   S
    C39    O197      0.54848      .   S
    C108   O198      0.89452      .   S
    C70    O198      0.89452      .   S
    C110   O199      0.89456      .   S
    C76    O199      0.89456      .   S
    C125   O200      0.63246      .   S
    C68    O200      0.63246      .   S
    C127   O201      0.63234      .   S
    C74    O201      0.63234      .   S
    C126   O202      0.63357      .   S
    C74    O202      0.63357      .   S
    C124   O203      0.63377      .   S
    C68    O203      0.63377      .   S
    C74    O204      0.76318      .   S
    C75    O204      0.76318      .   S
    C68    O205      0.76273      .   S
    C69    O205      0.76273      .   S
    C49    O206      0.54674      .   S
    C97    O206      0.54674      .   S
    C55    O207      0.54680      .   S
    C103   O207      0.54680      .   S
    C70    O208      0.70410      .   S
    C69    O208      0.70410      .   S
    C70    O209      0.70640      .   S
    C95    O209      0.70640      .   S
    C76    O210      0.70392  1_645   S
    C75    O210      0.70392      .   S
    C76    O211      0.70643      .   S
    C101   O211      0.70643      .   S
    C48    O212      0.54854      .   S
    C97    O212      0.54854      .   S
    C75    O213      0.70521      .   S
    C77    O213      0.70521      .   S
    C69    O214      0.70513      .   S
    C71    O214      0.70513      .   S
    C117   O215      0.90979      .   S
    C97    O215      0.90979      .   S
    C117   O216      0.89431      .   S
    C95    O216      0.89431      .   S
    C54    O217      0.54864      .   S
    C103   O217      0.54864      .   S
    C119   O218      0.90988      .   S
    C103   O218      0.90988      .   S
    C119   O219      0.89437      .   S
    C101   O219      0.89437      .   S
    C97    O220      0.54781      .   S
    C47    O220      0.54781      .   S
    C103   O221      0.54779      .   S
    C53    O221      0.54779      .   S
    C95    O222      0.70515      .   S
    C93    O222      0.70515      .   S
    C101   O223      0.70515      .   S
    C99    O223      0.70515      .   S
    C29    O224      0.54778      .   S
    C79    O224      0.54778      .   S
    C23    O225      0.54784      .   S
    C73    O225      0.54784      .   S
    C77    O226      0.89436      .   S
    C111   O226      0.89436      .   S
    C77    O227      0.70643      .   S
    C100   O227      0.70643      .   S
    C71    O228      0.89433      .   S
    C109   O228      0.89433      .   S
    C71    O229      0.70643      .   S
    C94    O229      0.70643      .   S
    C79    O230      0.90987      .   S
    C111   O230      0.90987      .   S
    C79    O231      0.54854      .   S
    C30    O231      0.54854      .   S
    C79    O232      0.54679      .   S
    C31    O232      0.54679      .   S
    C73    O233      0.90979      .   S
    C109   O233      0.90979      .   S
    C73    O234      0.54854      .   S
    C24    O234      0.54854      .   S
    C73    O235      0.54674      .   S
    C25    O235      0.54674      .   S
    C111   O236      1.26337      .   S
    C7     O236      1.26337      .   S
    C109   O237      1.26428      .   S
    C6     O237      1.26428      .   S
    C93    O238      0.70411      .   S
    C94    O238      0.70411      .   S
    C93    O239      0.76277      .   S
    C92    O239      0.76277      .   S
    C99    O240      0.70393      .   S
    C100   O240      0.70393  1_465   S
    C99    O241      0.76282      .   S
    C98    O241      0.76282      .   S
    C100   O242      0.89456      .   S
    C118   O242      0.89456      .   S
    C94    O243      0.89452      .   S
    C116   O243      0.89452      .   S
    C92    O244      0.63377      .   S
    C132   O244      0.63377      .   S
    C92    O245      0.63245      .   S
    C133   O245      0.63245      .   S
    C98    O246      0.63370      .   S
    C134   O246      0.63370      .   S
    C98    O247      0.63250      .   S
    C135   O247      0.63250      .   S
    C132   O248      1.13448      .   S
    C0     O248      1.13448      .   S
    C134   O249      1.13478      .   S
    C1     O249      1.13478      .   S
    C135   O250      1.19697      .   S
    C0     O250      1.19697      .   S
    C133   O251      1.19616      .   S
    C1     O251      1.19616      .   S
    C15    O252      0.54815      .   S
    C66    O252      0.54815      .   S
    C9     O253      0.54849      .   S
    C60    O253      0.54849      .   S
    C50    O254      0.54688      .   S
    C102   O254      0.54688      .   S
    C44    O255      0.54689      .   S
    C96    O255      0.54689      .   S
    C118   O256      1.34068      .   S
    C7     O256      1.34068      .   S
    C118   O257      0.90827  1_565   S
    C102   O257      0.90827      .   S
    C116   O258      1.34011      .   S
    C6     O258      1.34011      .   S
    C116   O259      0.90849      .   S
    C96    O259      0.90849      .   S
    C52    O260      0.54733      .   S
    C102   O260      0.54733      .   S
    C46    O261      0.54738      .   S
    C96    O261      0.54738      .   S
    C66    O262      0.54743      .   S
    C16    O262      0.54743      .   S
    C66    O263      0.90849      .   S
    C106   O263      0.90849      .   S
    C66    O264      0.54706      .   S
    C14    O264      0.54706      .   S
    C60    O265      0.54735      .   S
    C10    O265      0.54735      .   S
    C60    O266      0.90835      .   S
    C104   O266      0.90835  1_655   S
    C60    O267      0.54685      .   S
    C8     O267      0.54685      .   S
    C7     O268      1.46211      .   S
    C6     O268      1.46211      .   S
    C7     O269      1.19655      .   S
    C123   O269      1.19655      .   S
    C7     O270      1.13488      .   S
    C120   O270      1.13488      .   S
    C6     O271      1.19639      .   S
    C121   O271      1.19639      .   S
    C6     O272      1.13569      .   S
    C122   O272      1.13569      .   S
    C0     O273      1.46279      .   S
    C1     O273      1.46279      .   S
    C0     O274      1.34061      .   S
    C104   O274      1.34061      .   S
    C0     O275      1.26296      .   S
    C113   O275      1.26296      .   S
    C102   O276      0.54851      .   S
    C51    O276      0.54851      .   S
    C96    O277      0.54834      .   S
    C45    O277      0.54834      .   S
    C1     O278      1.34059      .   S
    C106   O278      1.34059      .   S
    C1     O279      1.26355      .   S
    C115   O279      1.26355      .   S
    C104   O280      0.89453      .   S
    C58    O280      0.89453      .   S
    C106   O281      0.89449      .   S
    C64    O281      0.89449      .   S
    C123   O282      0.63259      .   S
    C62    O282      0.63259      .   S
    C121   O283      0.63268      .   S
    C56    O283      0.63268      .   S
    C122   O284      0.63367      .   S
    C62    O284      0.63367      .   S
    C120   O285      0.63377      .   S
    C56    O285      0.63377      .   S
    C62    O286      0.76231      .   S
    C63    O286      0.76231      .   S
    C56    O287      0.76314      .   S
    C57    O287      0.76314      .   S
    C37    O288      0.54681      .   S
    C85    O288      0.54681      .   S
    C43    O289      0.54680      .   S
    C91    O289      0.54680      .   S
    C58    O290      0.70419  1_655   S
    C57    O290      0.70419      .   S
    C58    O291      0.70653      .   S
    C83    O291      0.70653      .   S
    C64    O292      0.70388  1_545   S
    C63    O292      0.70388      .   S
    C64    O293      0.70630      .   S
    C89    O293      0.70630      .   S
    C36    O294      0.54857      .   S
    C85    O294      0.54857      .   S
    C42    O295      0.54855      .   S
    C91    O295      0.54855      .   S
    C113   O296      0.90984      .   S
    C85    O296      0.90984      .   S
    C113   O297      0.89444      .   S
    C83    O297      0.89444      .   S
    C115   O298      0.90980      .   S
    C91    O298      0.90980      .   S
    C115   O299      0.89432      .   S
    C89    O299      0.89432      .   S
