# CIF file generated by openbabel 2.4.90, see http://openbabel.sf.net
data_I
_chemical_name_common ''
_cell_length_a 15.604
_cell_length_b 18.904
_cell_length_c 19.853
_cell_angle_alpha 88.505
_cell_angle_beta 90.614
_cell_angle_gamma 90.146
_space_group_name_H-M_alt 'P 1'
_space_group_name_Hall 'P 1'
loop_
    _symmetry_equiv_pos_as_xyz
    x,y,z
loop_
    _atom_site_label
    _atom_site_type_symbol
    _atom_site_fract_x
    _atom_site_fract_y
    _atom_site_fract_z
    _atom_site_occupancy
    N0      N    0.90431   0.92333   0.01573   1.000
    N1      N    0.16248   0.77175   0.49809   1.000
    N2      N    0.66263   0.72778   0.50117   1.000
    N3      N    0.40411   0.57657   0.98375   1.000
    N4      N    0.09568   0.07665   0.98426   1.000
    N5      N    0.59587   0.42341   0.01624   1.000
    N6      N    0.33735   0.27221   0.49878   1.000
    N7      N    0.83751   0.22823   0.50191   1.000
    Zr8     Zr   0.61031   0.44151   0.51465   1.000
    O9      O    0.62763   0.52605   0.51146   1.000
    O10     O    0.60446   0.43586   0.37647   1.000
    O11     O    0.68116   0.38161   0.51102   1.000
    O12     O    0.52606   0.39567   0.51201   1.000
    O13     O    0.60627   0.43648   0.65389   1.000
    Zr14    Zr   0.89201   0.94126   0.51409   1.000
    O15     O    0.82042   0.88139   0.51015   1.000
    O16     O    0.87422   0.02601   0.51127   1.000
    O17     O    0.97539   0.89506   0.51179   1.000
    O18     O    0.89721   0.93572   0.37593   1.000
    O19     O    0.89529   0.93626   0.65334   1.000
    Zr20    Zr   0.38968   0.55848   0.48537   1.000
    O21     O    0.37235   0.47393   0.48854   1.000
    O22     O    0.47392   0.60432   0.48800   1.000
    O23     O    0.39371   0.56350   0.34612   1.000
    O24     O    0.31883   0.61838   0.48900   1.000
    O25     O    0.39552   0.56412   0.62354   1.000
    Zr26    Zr   0.10798   0.05872   0.48593   1.000
    O27     O    0.17957   0.11859   0.48985   1.000
    O28     O    0.10470   0.06372   0.34668   1.000
    O29     O    0.02460   0.10493   0.48823   1.000
    O30     O    0.10278   0.06426   0.62408   1.000
    O31     O    0.12577   0.97397   0.48874   1.000
loop_
    _geom_bond_atom_site_label_1
    _geom_bond_atom_site_label_2
    _geom_bond_distance
    _geom_bond_site_symmetry_2
    _ccdc_geom_bond_type
    Zr8    O9        1.61993      .   S
    N2     O9        3.85141      .   S
    Zr8    O10       2.74860      .   S
    N5     O10       7.16144      .   S
    Zr8    O11       1.58805      .   S
    N7     O11       3.80320      .   S
    Zr8    O12       1.57386      .   S
    N6     O12       3.76394      .   S
    Zr8    O13       2.76487      .   S
    N5     O13       7.19518  1_554   S
    Zr14   O15       1.59100      .   S
    N2     O15       3.80892      .   S
    Zr14   O16       1.62599  1_565   S
    N7     O16       3.86628      .   S
    Zr14   O17       1.57077      .   S
    N1     O17       3.75689  1_455   S
    Zr14   O18       2.74965      .   S
    N0     O18       7.16301      .   S
    Zr14   O19       2.76353      .   S
    N0     O19       7.19234  1_554   S
    Zr20   O21       1.61995      .   S
    N6     O21       3.85141      .   S
    Zr20   O22       1.57382      .   S
    N2     O22       3.76380      .   S
    Zr20   O23       2.76501      .   S
    N3     O23       7.19559  1_556   S
    Zr20   O24       1.58803      .   S
    N1     O24       3.80317      .   S
    Zr20   O25       2.74846      .   S
    N3     O25       7.16102      .   S
    Zr26   O27       1.59096      .   S
    N6     O27       3.80881      .   S
    Zr26   O28       2.76365      .   S
    N4     O28       7.19271  1_556   S
    Zr26   O29       1.57081      .   S
    N7     O29       3.75691  1_655   S
    Zr26   O30       2.74953      .   S
    N4     O30       7.16264      .   S
    Zr26   O31       1.62598  1_545   S
    N1     O31       3.86624      .   S
