# CIF file generated by openbabel 2.4.90, see http://openbabel.sf.net
data_I
_chemical_name_common ''
_cell_length_a 18.434
_cell_length_b 18.423
_cell_length_c 18.421
_cell_angle_alpha 60.161
_cell_angle_beta 60.179
_cell_angle_gamma 60.182
_space_group_name_H-M_alt 'P 1'
_space_group_name_Hall 'P 1'
loop_
    _symmetry_equiv_pos_as_xyz
    x,y,z
loop_
    _atom_site_label
    _atom_site_type_symbol
    _atom_site_fract_x
    _atom_site_fract_y
    _atom_site_fract_z
    _atom_site_occupancy
    C0      C    0.38896   0.38912   0.11110   1.000
    C1      C    0.11099   0.11085   0.38880   1.000
    C2      C    0.38873   0.11095   0.11090   1.000
    C3      C    0.11118   0.38904   0.38900   1.000
    C4      C    0.38895   0.11112   0.38911   1.000
    C5      C    0.11100   0.38880   0.11083   1.000
    C6      C    0.61102   0.61090   0.88889   1.000
    C7      C    0.88899   0.88918   0.61120   1.000
    C8      C    0.88898   0.61122   0.88916   1.000
    C9      C    0.61103   0.88890   0.61088   1.000
    C10     C    0.88880   0.61099   0.61095   1.000
    C11     C    0.61125   0.88908   0.88910   1.000
