# CIF file generated by openbabel 2.4.90, see http://openbabel.sf.net
data_I
_chemical_name_common ''
_cell_length_a 13.183
_cell_length_b 13.173
_cell_length_c 13.98
_cell_angle_alpha 105.565
_cell_angle_beta 105.292
_cell_angle_gamma 93.379
_space_group_name_H-M_alt 'P 1'
_space_group_name_Hall 'P 1'
loop_
    _symmetry_equiv_pos_as_xyz
    x,y,z
loop_
    _atom_site_label
    _atom_site_type_symbol
    _atom_site_fract_x
    _atom_site_fract_y
    _atom_site_fract_z
    _atom_site_occupancy
    Zn0     Zn   0.13325   0.81813   0.63762   1.000
    Zn1     Zn   0.81838   0.13312   0.13762   1.000
    Zn2     Zn   0.86678   0.18189   0.36240   1.000
    Zn3     Zn   0.18164   0.86690   0.86240   1.000
    C4      C    0.35943   0.85628   0.77102   1.000
    C5      C    0.95053   0.83433   0.71913   1.000
    C6      C    0.14330   0.64017   0.72810   1.000
    C7      C    0.16588   0.04969   0.78157   1.000
    C8      C    0.64060   0.14375   0.22900   1.000
    C9      C    0.04950   0.16569   0.28000   1.000
    C10     C    0.85672   0.35985   0.27192   1.000
    C11     C    0.83415   0.95033   0.21846   1.000
    O12     O    0.33420   0.89427   0.85424   1.000
    O13     O    0.29478   0.81402   0.68098   1.000
    O14     O    0.97756   0.83554   0.63781   1.000
    O15     O    0.01353   0.83548   0.80574   1.000
    O16     O    0.10552   0.66514   0.64499   1.000
    O17     O    0.18565   0.70521   0.81807   1.000
    O18     O    0.16456   0.02287   0.86285   1.000
    O19     O    0.16475   0.98633   0.69479   1.000
    O20     O    0.66583   0.10576   0.14579   1.000
    O21     O    0.70524   0.18601   0.31904   1.000
    O22     O    0.02247   0.16449   0.36221   1.000
    O23     O    0.98650   0.16455   0.19429   1.000
    O24     O    0.89451   0.33488   0.35500   1.000
    O25     O    0.81438   0.29482   0.18195   1.000
    O26     O    0.83547   0.97715   0.13717   1.000
    O27     O    0.83527   0.01369   0.30523   1.000
loop_
    _geom_bond_atom_site_label_1
    _geom_bond_atom_site_label_2
    _geom_bond_distance
    _geom_bond_site_symmetry_2
    _ccdc_geom_bond_type
    O26    Zn1       2.07859  1_565   S
    O26    C11       1.28129      .   S
    Zn1    O20       2.06046      .   S
    Zn1    O25       2.06054      .   S
    Zn1    O23       2.12146      .   S
    O20    C8        1.27500      .   S
    O25    C10       1.27380      .   S
    O23    C9        1.26082  1_655   S
    C11    O27       1.27045  1_565   S
    C8     O21       1.27390      .   S
    C10    O24       1.27456      .   S
    C9     O22       1.29355      .   S
    O27    Zn2       2.11816      .   S
    O21    Zn2       2.06292      .   S
    O24    Zn2       2.06175      .   S
    O22    Zn2       2.07921  1_455   S
    Zn0    O14       2.07921  1_455   S
    Zn0    O16       2.06161      .   S
    Zn0    O13       2.06293      .   S
    Zn0    O19       2.11816      .   S
    O14    C5        1.28157      .   S
    O16    C6        1.27492      .   S
    O13    C4        1.27391      .   S
    O19    C7        1.27054  1_565   S
    C5     O15       1.27056  1_655   S
    C6     O17       1.27381      .   S
    C4     O12       1.27513      .   S
    C7     O18       1.28118      .   S
    O15    Zn3       2.12145      .   S
    O17    Zn3       2.06054      .   S
    O12    Zn3       2.06042      .   S
    Zn3    O18       2.07859  1_565   S
    Zn3    Zn0       2.91639      .   S
    Zn1    Zn2       2.91639      .   S
