# CIF file generated by openbabel 2.4.90, see http://openbabel.sf.net
data_I
_chemical_name_common ''
_cell_length_a 10.1035
_cell_length_b 11.5595
_cell_length_c 14.892
_cell_angle_alpha 91.046
_cell_angle_beta 90.032
_cell_angle_gamma 90.037
_space_group_name_H-M_alt 'P 1'
_space_group_name_Hall 'P 1'
loop_
    _symmetry_equiv_pos_as_xyz
    x,y,z
loop_
    _atom_site_label
    _atom_site_type_symbol
    _atom_site_fract_x
    _atom_site_fract_y
    _atom_site_fract_z
    _atom_site_occupancy
    C0      C    0.07177   0.24525   0.87038   1.000
    C1      C    0.88250   0.25930   0.69127   1.000
    C2      C    0.57171   0.25471   0.62959   1.000
    C3      C    0.38248   0.24049   0.80865   1.000
    C4      C    0.92822   0.75474   0.12964   1.000
    C5      C    0.11750   0.74069   0.30875   1.000
    C6      C    0.42829   0.74528   0.37044   1.000
    C7      C    0.61752   0.75950   0.19137   1.000
    C8      C    0.00000   0.50001   1.00000   1.000
    C9      C    0.50000   0.99999   0.50001   1.000
    C10     C    1.00000   0.00000   0.00000   1.000
    C11     C    0.50000   0.50000   0.50001   1.000
    C12     C    0.24210   0.14341   0.62886   1.000
    C13     C    0.94542   0.52555   0.73043   1.000
    C14     C    0.39077   0.43960   0.95332   1.000
    C15     C    0.79092   0.01942   0.76867   1.000
    C16     C    0.83967   0.31037   0.08124   1.000
    C17     C    0.29119   0.99660   0.98708   1.000
    C18     C    0.74249   0.35614   0.87115   1.000
    C19     C    0.44886   0.97425   0.76997   1.000
    C20     C    0.89021   0.06164   0.54483   1.000
    C21     C    0.29070   0.48030   0.73106   1.000
    C22     C    0.33846   0.18965   0.41910   1.000
    C23     C    0.79121   0.50326   0.51290   1.000
    C24     C    0.75790   0.85659   0.37116   1.000
    C25     C    0.05455   0.47443   0.26958   1.000
    C26     C    0.60922   0.56037   0.04672   1.000
    C27     C    0.20909   0.98056   0.23135   1.000
    C28     C    0.16034   0.68963   0.91878   1.000
    C29     C    0.70880   0.00339   0.01295   1.000
    C30     C    0.25750   0.64386   0.12888   1.000
    C31     C    0.55114   0.02575   0.23006   1.000
    C32     C    0.10978   0.93834   0.45521   1.000
    C33     C    0.70930   0.51970   0.26897   1.000
    C34     C    0.66153   0.81034   0.58093   1.000
    C35     C    0.20878   0.49673   0.48712   1.000
    C36     C    0.16062   0.17566   0.67179   1.000
    C37     C    0.97269   0.48054   0.79265   1.000
    C38     C    0.28304   0.42465   0.94694   1.000
    C39     C    0.86354   0.04841   0.82006   1.000
    C40     C    0.89942   0.25661   0.03473   1.000
    C41     C    0.27342   0.06977   0.94223   1.000
    C42     C    0.66090   0.32412   0.82812   1.000
    C43     C    0.47547   0.01941   0.70769   1.000
    C44     C    0.78252   0.07649   0.55141   1.000
    C45     C    0.36348   0.45146   0.67980   1.000
    C46     C    0.39882   0.24335   0.46539   1.000
    C47     C    0.77337   0.43011   0.55776   1.000
    C48     C    0.83938   0.82433   0.32824   1.000
    C49     C    0.02729   0.51945   0.20736   1.000
    C50     C    0.71695   0.57532   0.05309   1.000
    C51     C    0.13645   0.95158   0.17996   1.000
    C52     C    0.10058   0.74339   0.96530   1.000
    C53     C    0.72657   0.93022   0.05779   1.000
    C54     C    0.33910   0.67587   0.17190   1.000
    C55     C    0.52452   0.98058   0.29233   1.000
    C56     C    0.21748   0.92350   0.44862   1.000
    C57     C    0.63652   0.54853   0.32023   1.000
    C58     C    0.60118   0.75664   0.53464   1.000
    C59     C    0.22663   0.56987   0.44226   1.000
    C60     C    0.18937   0.19956   0.75397   1.000
    C61     C    0.04860   0.18485   0.63559   1.000
    C62     C    0.97900   0.36951   0.78599   1.000
    C63     C    0.99487   0.54022   0.86193   1.000
    C64     C    0.24870   0.34825   0.88722   1.000
    C65     C    0.20740   0.48270   0.00000   1.000
    C66     C    0.91212   0.14988   0.80883   1.000
    C67     C    0.88901   0.98033   0.88216   1.000
    C68     C    0.97272   0.31406   0.97989   1.000
    C69     C    0.88954   0.14924   0.03891   1.000
    C70     C    0.15215   0.10369   0.93687   1.000
    C71     C    0.37142   0.11076   0.90204   1.000
    C72     C    0.68958   0.30031   0.74592   1.000
    C73     C    0.54887   0.31503   0.86422   1.000
    C74     C    0.47889   0.13059   0.71393   1.000
    C75     C    0.49957   0.95990   0.63866   1.000
    C76     C    0.74835   0.15128   0.61233   1.000
    C77     C    0.70676   0.01975   0.50052   1.000
    C78     C    0.41215   0.35010   0.69112   1.000
    C79     C    0.38905   0.51964   0.61778   1.000
    C80     C    0.47223   0.18586   0.52011   1.000
    C81     C    0.38930   0.35073   0.46114   1.000
    C82     C    0.65206   0.39623   0.56311   1.000
    C83     C    0.87137   0.38904   0.59792   1.000
    C84     C    0.81062   0.80043   0.24605   1.000
    C85     C    0.95140   0.81514   0.36443   1.000
    C86     C    0.02100   0.63048   0.21404   1.000
    C87     C    0.00517   0.45977   0.13808   1.000
    C88     C    0.75130   0.65173   0.11281   1.000
    C89     C    0.79259   0.51726   0.00321   1.000
    C90     C    0.08788   0.85011   0.19119   1.000
    C91     C    0.11098   0.01966   0.11786   1.000
    C92     C    0.02729   0.68594   0.02014   1.000
    C93     C    0.11046   0.85076   0.96111   1.000
    C94     C    0.84784   0.89631   0.06315   1.000
    C95     C    0.62857   0.88923   0.09799   1.000
    C96     C    0.31042   0.69968   0.25410   1.000
    C97     C    0.45112   0.68496   0.13580   1.000
    C98     C    0.52111   0.86941   0.28610   1.000
    C99     C    0.50043   0.04009   0.36136   1.000
    C100    C    0.25165   0.84870   0.38769   1.000
    C101    C    0.29324   0.98024   0.49951   1.000
    C102    C    0.58785   0.64989   0.30891   1.000
    C103    C    0.61095   0.48035   0.38224   1.000
    C104    C    0.52776   0.81413   0.47991   1.000
    C105    C    0.61069   0.64926   0.53888   1.000
    C106    C    0.34793   0.60376   0.43691   1.000
    C107    C    0.12862   0.61095   0.40210   1.000
    O108    O    0.24522   0.45368   0.97347   1.000
    O109    O    0.10370   0.49135   1.00000   1.000
    O110    O    0.94477   0.07462   0.01946   1.000
    O111    O    0.05549   0.00983   0.05893   1.000
    O112    O    0.94450   0.99017   0.94108   1.000
    O113    O    0.05523   0.92538   0.98056   1.000
    O114    O    0.75477   0.54629   0.02815   1.000
    O115    O    0.89630   0.50863   0.00160   1.000
    O116    O    0.71768   0.96681   0.03537   1.000
    O117    O    0.97775   0.72034   0.07489   1.000
    O118    O    0.06394   0.71467   0.99272   1.000
    O119    O    0.89448   0.20292   0.03682   1.000
    O120    O    0.86954   0.28349   0.05799   1.000
    O121    O    0.93607   0.28533   0.00731   1.000
    O122    O    0.66309   0.56784   0.04991   1.000
    O123    O    0.73412   0.61353   0.08295   1.000
    O124    O    0.78721   0.91326   0.06047   1.000
    O125    O    0.67757   0.90973   0.07789   1.000
    O126    O    0.88803   0.82553   0.09640   1.000
    O127    O    0.62304   0.82437   0.14468   1.000
    O128    O    0.83976   0.70324   0.12122   1.000
    O129    O    0.12372   0.98562   0.14891   1.000
    O130    O    0.29830   0.65987   0.15039   1.000
    O131    O    0.00805   0.80243   0.16042   1.000
    O132    O    0.86942   0.77759   0.18785   1.000
    O133    O    0.39511   0.68042   0.15385   1.000
    O134    O    0.53432   0.72223   0.16359   1.000
    O135    O    0.01623   0.48961   0.17272   1.000
    O136    O    0.00258   0.47989   0.06904   1.000
    O137    O    0.32476   0.68778   0.21300   1.000
    O138    O    0.11217   0.90085   0.18558   1.000
    O139    O    0.17277   0.96607   0.20565   1.000
    O140    O    0.56931   0.81446   0.23873   1.000
    O141    O    0.02414   0.57497   0.21070   1.000
    O142    O    0.04092   0.49694   0.23847   1.000
    O143    O    0.06925   0.68558   0.26139   1.000
    O144    O    0.53783   0.00316   0.26120   1.000
    O145    O    0.82500   0.81238   0.28714   1.000
    O146    O    0.36935   0.72248   0.31227   1.000
    O147    O    0.67291   0.53412   0.29460   1.000
    O148    O    0.52281   0.92499   0.28922   1.000
    O149    O    0.51247   0.01034   0.32685   1.000
    O150    O    0.03445   0.77791   0.33659   1.000
    O151    O    0.12306   0.67582   0.35543   1.000
    O152    O    0.61218   0.59921   0.31457   1.000
    O153    O    0.50807   0.69759   0.33967   1.000
    O154    O    0.62373   0.51444   0.35124   1.000
    O155    O    0.89539   0.81974   0.34634   1.000
    O156    O    0.79864   0.84046   0.34970   1.000
    O157    O    0.50021   0.02004   0.43069   1.000
    O158    O    0.33997   0.79699   0.37906   1.000
    O159    O    0.38811   0.67452   0.40367   1.000
    O160    O    0.47802   0.77971   0.42518   1.000
    O161    O    0.55547   0.49018   0.44113   1.000
    O162    O    0.23456   0.88610   0.41816   1.000
    O163    O    0.17763   0.59041   0.42218   1.000
    O164    O    0.36864   0.21650   0.44224   1.000
    O165    O    0.28728   0.58682   0.43958   1.000
    O166    O    0.21770   0.53330   0.46469   1.000
    O167    O    0.16363   0.93092   0.45191   1.000
    O168    O    0.25536   0.95187   0.47406   1.000
    O169    O    0.39406   0.29704   0.46327   1.000
    O170    O    0.44465   0.42537   0.48058   1.000
    O171    O    0.43552   0.21461   0.49275   1.000
    O172    O    0.56447   0.78539   0.50728   1.000
    O173    O    0.39662   0.99012   0.49976   1.000
    O174    O    0.60338   0.00987   0.50027   1.000
    O175    O    0.49978   0.97995   0.56934   1.000
    O176    O    0.55534   0.57463   0.51945   1.000
    O177    O    0.44452   0.50982   0.55890   1.000
    O178    O    0.74464   0.04812   0.52596   1.000
    O179    O    0.78229   0.46669   0.53533   1.000
    O180    O    0.52197   0.22029   0.57485   1.000
    O181    O    0.60593   0.70295   0.53676   1.000
    O182    O    0.63135   0.78349   0.55778   1.000
    O183    O    0.83636   0.06907   0.54812   1.000
    O184    O    0.76543   0.11389   0.58187   1.000
    O185    O    0.71271   0.41317   0.56044   1.000
    O186    O    0.82237   0.40958   0.57784   1.000
    O187    O    0.61188   0.32547   0.59635   1.000
    O188    O    0.87693   0.32417   0.64460   1.000
    O189    O    0.66003   0.20300   0.62096   1.000
    O190    O    0.37626   0.48555   0.64879   1.000
    O191    O    0.20136   0.15953   0.65033   1.000
    O192    O    0.49193   0.30240   0.66035   1.000
    O193    O    0.63064   0.27751   0.68775   1.000
    O194    O    0.10461   0.18026   0.65369   1.000
    O195    O    0.96555   0.22208   0.66343   1.000
    O196    O    0.48752   0.98966   0.67318   1.000
    O197    O    0.17499   0.18761   0.71288   1.000
    O198    O    0.38781   0.40078   0.68546   1.000
    O199    O    0.32709   0.46588   0.70543   1.000
    O200    O    0.93075   0.31441   0.73863   1.000
    O201    O    0.47718   0.07500   0.71081   1.000
    O202    O    0.46216   0.99683   0.73883   1.000
    O203    O    0.43068   0.18554   0.76129   1.000
    O204    O    0.95905   0.50304   0.76154   1.000
    O205    O    0.67524   0.31222   0.78702   1.000
    O206    O    0.13057   0.22240   0.81218   1.000
    O207    O    0.82723   0.03392   0.79437   1.000
    O208    O    0.97584   0.42502   0.78932   1.000
    O209    O    0.98378   0.51038   0.82729   1.000
    O210    O    0.46567   0.27776   0.83644   1.000
    O211    O    0.37695   0.17562   0.85534   1.000
    O212    O    0.88783   0.09915   0.81445   1.000
    O213    O    0.99194   0.19757   0.83961   1.000
    O214    O    0.87628   0.01437   0.85111   1.000
    O215    O    0.60488   0.31958   0.84617   1.000
    O216    O    0.70169   0.34013   0.84964   1.000
    O217    O    0.99744   0.52011   0.93096   1.000
    O218    O    0.16023   0.29675   0.87880   1.000
    O219    O    0.11196   0.17447   0.90363   1.000
    O220    O    0.02225   0.27966   0.92513   1.000
    O221    O    0.26587   0.38645   0.91708   1.000
    O222    O    0.32242   0.09027   0.92213   1.000
    O223    O    0.13046   0.71651   0.94204   1.000
    O224    O    0.21278   0.08673   0.93955   1.000
    O225    O    0.28230   0.03319   0.96465   1.000
    O226    O    0.33691   0.43212   0.95013   1.000
    O227    O    0.10552   0.79708   0.96320   1.000
    O228    O    0.28592   0.22002   0.78131   1.000
    O229    O    0.02538   0.30738   0.82818   1.000
    O230    O    0.31559   0.29437   0.84794   1.000
    O231    O    0.89731   0.20459   0.75005   1.000
    O232    O    0.98636   0.40703   0.98994   1.000
    O233    O    0.07607   0.05185   0.96844   1.000
    O234    O    0.78604   0.27981   0.71860   1.000
    O235    O    0.52530   0.19265   0.67176   1.000
    O236    O    0.81542   0.20529   0.65180   1.000
    O237    O    0.39731   0.29529   0.74989   1.000
    O238    O    0.48611   0.09293   0.51006   1.000
    O239    O    0.57603   0.44812   0.53156   1.000
    O240    O    0.71407   0.77997   0.21871   1.000
    O241    O    0.97461   0.69261   0.17184   1.000
    O242    O    0.68441   0.70562   0.15209   1.000
    O243    O    0.10269   0.79540   0.24997   1.000
    O244    O    0.01365   0.59297   0.01007   1.000
    O245    O    0.92392   0.94816   0.03158   1.000
    O246    O    0.21396   0.72018   0.28143   1.000
    O247    O    0.47470   0.80734   0.32827   1.000
    O248    O    0.18457   0.79469   0.34822   1.000
    O249    O    0.60268   0.70470   0.25014   1.000
    O250    O    0.51388   0.90706   0.48996   1.000
    O251    O    0.42396   0.55188   0.46846   1.000
loop_
    _geom_bond_atom_site_label_1
    _geom_bond_atom_site_label_2
    _geom_bond_distance
    _geom_bond_site_symmetry_2
    _ccdc_geom_bond_type
    C65    O108      0.64048  1_554   S
    C38    O108      0.64048      .   S
    C65    O109      1.05253  1_554   S
    C8     O109      1.05253      .   S
    C10    O110      1.06346      .   S
    C69    O110      1.06346      .   S
    C10    O111      1.04556  1_655   S
    C91    O111      1.04556      .   S
    C10    O112      1.04542  1_544   S
    C67    O112      1.04542      .   S
    C10    O113      1.06346  1_644   S
    C93    O113      1.06346      .   S
    C89    O114      0.62641      .   S
    C50    O114      0.62641      .   S
    C89    O115      1.05281      .   S
    C8     O115      1.05281  1_456   S
    C29    O116      0.55099  1_545   S
    C53    O116      0.55099      .   S
    C92    O117      1.03069  1_455   S
    C4     O117      1.03069      .   S
    C92    O118      0.64736  1_554   S
    C52    O118      0.64736      .   S
    C40    O119      0.62389      .   S
    C69    O119      0.62389      .   S
    C40    O120      0.55133      .   S
    C16    O120      0.55133      .   S
    C40    O121      0.64736      .   S
    C68    O121      0.64736  1_556   S
    C26    O122      0.55288      .   S
    C50    O122      0.55288      .   S
    C50    O123      0.64458      .   S
    C88    O123      0.64458      .   S
    C53    O124      0.64476      .   S
    C94    O124      0.64476      .   S
    C53    O125      0.62722      .   S
    C95    O125      0.62722      .   S
    C94    O126      1.04616      .   S
    C4     O126      1.04616      .   S
    C95    O127      1.03335      .   S
    C7     O127      1.03335      .   S
    C88    O128      1.07958      .   S
    C4     O128      1.07958      .   S
    C91    O129      0.62595  1_545   S
    C51    O129      0.62595      .   S
    C30    O130      0.55168      .   S
    C54    O130      0.55168      .   S
    C4     O131      1.07433  1_655   S
    C90    O131      1.07433      .   S
    C4     O132      1.07998      .   S
    C84    O132      1.07998      .   S
    C97    O133      0.62923      .   S
    C54    O133      0.62923      .   S
    C97    O134      1.02763      .   S
    C7     O134      1.02763      .   S
    C87    O135      0.62533      .   S
    C49    O135      0.62533      .   S
    C87    O136      1.05855      .   S
    C8     O136      1.05855  1_556   S
    C54    O137      0.64158      .   S
    C96    O137      0.64158      .   S
    C51    O138      0.64248      .   S
    C90    O138      0.64248      .   S
    C51    O139      0.55366      .   S
    C27    O139      0.55366      .   S
    C7     O140      1.05955      .   S
    C98    O140      1.05955      .   S
    C49    O141      0.64350      .   S
    C86    O141      0.64350      .   S
    C49    O142      0.55287      .   S
    C25    O142      0.55287      .   S
    C86    O143      1.06000      .   S
    C5     O143      1.06000      .   S
    C31    O144      0.55289      .   S
    C55    O144      0.55289  1_565   S
    C84    O145      0.64147      .   S
    C48    O145      0.64147      .   S
    C96    O146      1.07946      .   S
    C6     O146      1.07946      .   S
    C33    O147      0.55367      .   S
    C57    O147      0.55367      .   S
    C98    O148      0.64361      .   S
    C55    O148      0.64361      .   S
    C55    O149      0.62529  1_565   S
    C99    O149      0.62529      .   S
    C5     O150      1.02734      .   S
    C85    O150      1.02734  1_655   S
    C5     O151      1.03326      .   S
    C107   O151      1.03326      .   S
    C102   O152      0.64244      .   S
    C57    O152      0.64244      .   S
    C102   O153      1.07487      .   S
    C6     O153      1.07487      .   S
    C57    O154      0.62598      .   S
    C103   O154      0.62598      .   S
    C48    O155      0.62937      .   S
    C85    O155      0.62937      .   S
    C48    O156      0.55170      .   S
    C24    O156      0.55170      .   S
    C99    O157      1.06218      .   S
    C9     O157      1.06218  1_565   S
    C6     O158      1.08078      .   S
    C100   O158      1.08078      .   S
    C6     O159      1.04568      .   S
    C106   O159      1.04568      .   S
    C6     O160      1.03094      .   S
    C104   O160      1.03094      .   S
    C103   O161      1.04547      .   S
    C11    O161      1.04547      .   S
    C100   O162      0.64459      .   S
    C56    O162      0.64459      .   S
    C107   O163      0.62726      .   S
    C59    O163      0.62726      .   S
    C22    O164      0.55131      .   S
    C46    O164      0.55131      .   S
    C106   O165      0.64469      .   S
    C59    O165      0.64469      .   S
    C59    O166      0.55097      .   S
    C35    O166      0.55097      .   S
    C56    O167      0.55290      .   S
    C32    O167      0.55290      .   S
    C56    O168      0.62667      .   S
    C101   O168      0.62667      .   S
    C81    O169      0.62391      .   S
    C46    O169      0.62391      .   S
    C81    O170      1.06338      .   S
    C11    O170      1.06338      .   S
    C46    O171      0.64725      .   S
    C80    O171      0.64725      .   S
    C104   O172      0.64724      .   S
    C58    O172      0.64724      .   S
    C101   O173      1.05064      .   S
    C9     O173      1.05064      .   S
    C9     O174      1.05066  1_565   S
    C77    O174      1.05066      .   S
    C9     O175      1.06218      .   S
    C75    O175      1.06218      .   S
    C11    O176      1.06339      .   S
    C105   O176      1.06339      .   S
    C11    O177      1.04547      .   S
    C79    O177      1.04547      .   S
    C77    O178      0.62668      .   S
    C44    O178      0.62668      .   S
    C23    O179      0.55098      .   S
    C47    O179      0.55098      .   S
    C80    O180      1.03094      .   S
    C2     O180      1.03094      .   S
    C58    O181      0.62390      .   S
    C105   O181      0.62390      .   S
    C58    O182      0.55131      .   S
    C34    O182      0.55131      .   S
    C20    O183      0.55290      .   S
    C44    O183      0.55290      .   S
    C44    O184      0.64458      .   S
    C76    O184      0.64458      .   S
    C47    O185      0.64470      .   S
    C82    O185      0.64470      .   S
    C47    O186      0.62725      .   S
    C83    O186      0.62725      .   S
    C82    O187      1.04567      .   S
    C2     O187      1.04567      .   S
    C83    O188      1.03326      .   S
    C1     O188      1.03326      .   S
    C76    O189      1.08079      .   S
    C2     O189      1.08079      .   S
    C79    O190      0.62598      .   S
    C45    O190      0.62598      .   S
    C12    O191      0.55170      .   S
    C36    O191      0.55170      .   S
    C2     O192      1.07488      .   S
    C78    O192      1.07488      .   S
    C2     O193      1.07946      .   S
    C72    O193      1.07946      .   S
    C61    O194      0.62937      .   S
    C36    O194      0.62937      .   S
    C61    O195      1.02736  1_455   S
    C1     O195      1.02736      .   S
    C75    O196      0.62528      .   S
    C43    O196      0.62528  1_545   S
    C36    O197      0.64147      .   S
    C60    O197      0.64147      .   S
    C45    O198      0.64244      .   S
    C78    O198      0.64244      .   S
    C45    O199      0.55367      .   S
    C21    O199      0.55367      .   S
    C1     O200      1.05999      .   S
    C62    O200      1.05999      .   S
    C43    O201      0.64361      .   S
    C74    O201      0.64361      .   S
    C43    O202      0.55289  1_545   S
    C19    O202      0.55289      .   S
    C74    O203      1.05955      .   S
    C3     O203      1.05955      .   S
    C13    O204      0.55286      .   S
    C37    O204      0.55286      .   S
    C72    O205      0.64158      .   S
    C42    O205      0.64158      .   S
    C60    O206      1.07999      .   S
    C0     O206      1.07999      .   S
    C15    O207      0.55366      .   S
    C39    O207      0.55366      .   S
    C62    O208      0.64351      .   S
    C37    O208      0.64351      .   S
    C37    O209      0.62534      .   S
    C63    O209      0.62534      .   S
    C3     O210      1.02763      .   S
    C73    O210      1.02763      .   S
    C3     O211      1.03336      .   S
    C71    O211      1.03336      .   S
    C66    O212      0.64249      .   S
    C39    O212      0.64249      .   S
    C66    O213      1.07432      .   S
    C0     O213      1.07432  1_455   S
    C39    O214      0.62596      .   S
    C67    O214      0.62596  1_565   S
    C42    O215      0.62923      .   S
    C73    O215      0.62923      .   S
    C42    O216      0.55168      .   S
    C18    O216      0.55168      .   S
    C63    O217      1.05844      .   S
    C8     O217      1.05844  1_455   S
    C0     O218      1.07956      .   S
    C64    O218      1.07956      .   S
    C0     O219      1.04615      .   S
    C70    O219      1.04615      .   S
    C0     O220      1.03067      .   S
    C68    O220      1.03067  1_655   S
    C64    O221      0.64457      .   S
    C38    O221      0.64457      .   S
    C71    O222      0.62723      .   S
    C41    O222      0.62723      .   S
    C28    O223      0.55134      .   S
    C52    O223      0.55134      .   S
    C70    O224      0.64476      .   S
    C41    O224      0.64476      .   S
    C41    O225      0.55100      .   S
    C17    O225      0.55100  1_565   S
    C38    O226      0.55288      .   S
    C14    O226      0.55288      .   S
    C93    O227      0.62389      .   S
    C52    O227      0.62389      .   S
    C60    O228      1.08126      .   S
    C3     O228      1.08126      .   S
    C62    O229      1.07095  1_655   S
    C0     O229      1.07095      .   S
    C64    O230      1.08377      .   S
    C3     O230      1.08377      .   S
    C66    O231      1.09944      .   S
    C1     O231      1.09944      .   S
    C68    O232      1.09103      .   S
    C8     O232      1.09103  1_455   S
    C70    O233      1.08674      .   S
    C10    O233      1.08674  1_654   S
    C72    O234      1.08110      .   S
    C1     O234      1.08110      .   S
    C74    O235      1.07015      .   S
    C2     O235      1.07015      .   S
    C76    O236      1.08635      .   S
    C1     O236      1.08635      .   S
    C78    O237      1.10000      .   S
    C3     O237      1.10000      .   S
    C80    O238      1.09108      .   S
    C9     O238      1.09108  1_565   S
    C82    O239      1.08675      .   S
    C11    O239      1.08675      .   S
    C84    O240      1.08126      .   S
    C7     O240      1.08126      .   S
    C86    O241      1.07097  1_455   S
    C4     O241      1.07097      .   S
    C88    O242      1.08380      .   S
    C7     O242      1.08380      .   S
    C90    O243      1.09945      .   S
    C5     O243      1.09945      .   S
    C92    O244      1.09098      .   S
    C8     O244      1.09098  1_556   S
    C94    O245      1.08685      .   S
    C10    O245      1.08685  1_545   S
    C96    O246      1.08110      .   S
    C5     O246      1.08110      .   S
    C98    O247      1.07015      .   S
    C6     O247      1.07015      .   S
    C100   O248      1.08636      .   S
    C5     O248      1.08636      .   S
    C102   O249      1.10000      .   S
    C7     O249      1.10000      .   S
    C104   O250      1.09107      .   S
    C9     O250      1.09107      .   S
    C106   O251      1.08675      .   S
    C11    O251      1.08675      .   S
