# CIF file generated by openbabel 2.4.90, see http://openbabel.sf.net
data_I
_chemical_name_common ''
_cell_length_a 12.318
_cell_length_b 21.045
_cell_length_c 16.643
_cell_angle_alpha 71.59
_cell_angle_beta 83.891
_cell_angle_gamma 90.005
_space_group_name_H-M_alt 'P 1'
_space_group_name_Hall 'P 1'
loop_
    _symmetry_equiv_pos_as_xyz
    x,y,z
loop_
    _atom_site_label
    _atom_site_type_symbol
    _atom_site_fract_x
    _atom_site_fract_y
    _atom_site_fract_z
    _atom_site_occupancy
    Zr0     Zr   0.37506   0.45213   0.99997   1.000
    Zr1     Zr   0.37506   0.95213   0.99997   1.000
    Zr2     Zr   0.87507   0.45213   0.99997   1.000
    Zr3     Zr   0.87508   0.95213   0.99997   1.000
    Zr4     Zr   0.02084   0.09187   0.39623   1.000
    Zr5     Zr   0.02084   0.59187   0.39623   1.000
    Zr6     Zr   0.52085   0.09187   0.39623   1.000
    Zr7     Zr   0.52085   0.59187   0.39623   1.000
    Zr8     Zr   0.22919   0.29006   0.60372   1.000
    Zr9     Zr   0.22919   0.79006   0.60372   1.000
    Zr10    Zr   0.72920   0.29006   0.60372   1.000
    Zr11    Zr   0.72921   0.79006   0.60372   1.000
    Zr12    Zr   0.12496   0.04787   0.30000   1.000
    Zr13    Zr   0.12497   0.54787   0.30000   1.000
    Zr14    Zr   0.62498   0.04787   0.30000   1.000
    Zr15    Zr   0.62498   0.54787   0.30000   1.000
    Zr16    Zr   0.47919   0.40812   0.60376   1.000
    Zr17    Zr   0.47919   0.90812   0.60376   1.000
    Zr18    Zr   0.97920   0.40812   0.60376   1.000
    Zr19    Zr   0.97920   0.90812   0.60376   1.000
    Zr20    Zr   0.27083   0.20993   0.39627   1.000
    Zr21    Zr   0.27084   0.70993   0.39627   1.000
    Zr22    Zr   0.77085   0.20993   0.39627   1.000
    Zr23    Zr   0.77085   0.70993   0.39627   1.000
    N24     N    0.73773   0.48619   0.29761   1.000
    O25     O    0.65067   0.52226   0.32289   1.000
    O26     O    0.67670   0.51126   0.29883   1.000
    N27     N    0.51231   0.13507   0.70254   1.000
    O28     O    0.59937   0.18378   0.67721   1.000
    N29     N    0.23772   0.98608   0.29761   1.000
    O30     O    0.17668   0.01120   0.29883   1.000
    O31     O    0.15065   0.02220   0.32289   1.000
    N32     N    0.51231   0.63507   0.70254   1.000
    O33     O    0.59938   0.68378   0.67721   1.000
    N34     N    0.23772   0.48619   0.29761   1.000
    O35     O    0.15065   0.52226   0.32289   1.000
    O36     O    0.17669   0.51126   0.29883   1.000
    N37     N    0.01231   0.63507   0.70254   1.000
    O38     O    0.09937   0.68378   0.67721   1.000
    N39     N    0.76232   0.01380   0.70238   1.000
    O40     O    0.84939   0.97774   0.67710   1.000
    N41     N    0.98773   0.36493   0.29744   1.000
    O42     O    0.90067   0.31621   0.32278   1.000
    N43     N    0.73773   0.98608   0.29761   1.000
    O44     O    0.65067   0.02220   0.32289   1.000
    O45     O    0.67670   0.01120   0.29883   1.000
    N46     N    0.48773   0.36493   0.29744   1.000
    O47     O    0.40066   0.31621   0.32278   1.000
    N48     N    0.98773   0.86493   0.29744   1.000
    O49     O    0.90067   0.81621   0.32278   1.000
    N50     N    0.48773   0.86493   0.29744   1.000
    O51     O    0.40066   0.81621   0.32278   1.000
    N52     N    0.01231   0.13507   0.70255   1.000
    O53     O    0.09937   0.18378   0.67721   1.000
    N54     N    0.26231   0.01380   0.70238   1.000
    O55     O    0.34937   0.97774   0.67710   1.000
    N56     N    0.26231   0.51380   0.70234   1.000
    O57     O    0.34937   0.47774   0.67708   1.000
    N58     N    0.76232   0.51380   0.70234   1.000
    O59     O    0.84939   0.47774   0.67708   1.000
    C60     C    0.22386   0.53691   0.11674   1.000
    O61     O    0.23583   0.51889   0.17869   1.000
    O62     O    0.27627   0.50995   0.07767   1.000
    O63     O    0.18149   0.54714   0.16628   1.000
    C64     C    0.04252   0.74644   0.32093   1.000
    O65     O    0.01835   0.69887   0.34278   1.000
    O66     O    0.95585   0.72839   0.34279   1.000
    O67     O    0.01823   0.78874   0.31264   1.000
    O68     O    0.12185   0.74211   0.33767   1.000
    C69     C    0.13970   0.44206   0.48690   1.000
    O70     O    0.16415   0.39012   0.52364   1.000
    O71     O    0.10272   0.49257   0.46230   1.000
    O72     O    0.12875   0.48157   0.43824   1.000
    O73     O    0.17887   0.45509   0.42384   1.000
    C74     C    0.54252   0.74644   0.32093   1.000
    O75     O    0.45584   0.72839   0.34279   1.000
    O76     O    0.51835   0.69887   0.34278   1.000
    O77     O    0.51824   0.78874   0.31264   1.000
    O78     O    0.62186   0.74211   0.33767   1.000
    C79     C    0.29246   0.59303   0.32097   1.000
    O80     O    0.37182   0.58900   0.33769   1.000
    O81     O    0.26819   0.55485   0.31272   1.000
    O82     O    0.20580   0.60015   0.34280   1.000
    O83     O    0.23183   0.58915   0.31875   1.000
    O84     O    0.26830   0.62967   0.34281   1.000
    C85     C    0.02609   0.59555   0.88343   1.000
    O86     O    0.97375   0.54897   0.92243   1.000
    O87     O    0.01414   0.60843   0.82147   1.000
    C88     C    0.54252   0.24644   0.32093   1.000
    O89     O    0.51823   0.28874   0.31264   1.000
    O90     O    0.62186   0.24211   0.33767   1.000
    O91     O    0.51835   0.19887   0.34278   1.000
    O92     O    0.45584   0.22839   0.34279   1.000
    C93     C    0.70758   0.40696   0.67903   1.000
    O94     O    0.62822   0.41100   0.66230   1.000
    O95     O    0.73184   0.44515   0.68727   1.000
    O96     O    0.73174   0.37032   0.65718   1.000
    O97     O    0.79424   0.39984   0.65719   1.000
    C98     C    0.27617   0.46308   0.88324   1.000
    O99     O    0.26419   0.48111   0.82128   1.000
    C100    C    0.52609   0.59555   0.88343   1.000
    O101    O    0.47374   0.54897   0.92243   1.000
    O102    O    0.51415   0.60843   0.82147   1.000
    C103    C    0.63972   0.44206   0.48690   1.000
    O104    O    0.62876   0.48157   0.43824   1.000
    O105    O    0.60273   0.49257   0.46230   1.000
    O106    O    0.66417   0.39012   0.52364   1.000
    O107    O    0.67889   0.45509   0.42384   1.000
    C108    C    0.47395   0.40444   0.11657   1.000
    O109    O    0.48589   0.39156   0.17852   1.000
    C110    C    0.86034   0.55793   0.51310   1.000
    O111    O    0.83589   0.60988   0.47636   1.000
    O112    O    0.82116   0.54490   0.57614   1.000
    O113    O    0.89732   0.50743   0.53770   1.000
    C114    C    0.97396   0.40444   0.11657   1.000
    O115    O    0.98590   0.39156   0.17852   1.000
    C116    C    0.79247   0.09303   0.32097   1.000
    O117    O    0.76821   0.05482   0.31272   1.000
    O118    O    0.70581   0.10015   0.34280   1.000
    O119    O    0.73184   0.08915   0.31875   1.000
    O120    O    0.76831   0.12967   0.34281   1.000
    O121    O    0.87182   0.08900   0.33769   1.000
    C122    C    0.04251   0.24644   0.32093   1.000
    O123    O    0.01823   0.28874   0.31264   1.000
    O124    O    0.95585   0.22839   0.34279   1.000
    O125    O    0.01834   0.19887   0.34278   1.000
    O126    O    0.12185   0.24211   0.33767   1.000
    C127    C    0.36032   0.05793   0.51310   1.000
    O128    O    0.32115   0.04490   0.57615   1.000
    O129    O    0.33587   0.10988   0.47636   1.000
    O130    O    0.39730   0.00743   0.53770   1.000
    C131    C    0.88967   0.81469   0.48678   1.000
    O132    O    0.92885   0.83310   0.42371   1.000
    O133    O    0.85267   0.77642   0.46223   1.000
    O134    O    0.91416   0.84823   0.52355   1.000
    C135    C    0.97396   0.90444   0.11657   1.000
    O136    O    0.98590   0.89156   0.17852   1.000
    C137    C    0.72387   0.03692   0.11674   1.000
    O138    O    0.73585   0.01873   0.17869   1.000
    O139    O    0.68150   0.04714   0.16628   1.000
    O140    O    0.77629   0.00995   0.07767   1.000
    C141    C    0.61039   0.68531   0.51322   1.000
    O142    O    0.64739   0.72358   0.53777   1.000
    O143    O    0.57120   0.66690   0.57629   1.000
    O144    O    0.58590   0.65177   0.47645   1.000
    C145    C    0.72387   0.53691   0.11674   1.000
    O146    O    0.77629   0.50995   0.07767   1.000
    O147    O    0.73585   0.51889   0.17869   1.000
    O148    O    0.68150   0.54714   0.16628   1.000
    C149    C    0.29246   0.09303   0.32097   1.000
    O150    O    0.26829   0.12967   0.34281   1.000
    O151    O    0.20579   0.10015   0.34280   1.000
    O152    O    0.23182   0.08915   0.31875   1.000
    O153    O    0.26819   0.05482   0.31272   1.000
    O154    O    0.37182   0.08900   0.33769   1.000
    C155    C    0.95753   0.75355   0.67905   1.000
    O156    O    0.04419   0.77161   0.65720   1.000
    O157    O    0.98170   0.80112   0.65721   1.000
    O158    O    0.87819   0.75788   0.66232   1.000
    O159    O    0.98181   0.71125   0.68734   1.000
    C160    C    0.45752   0.25355   0.67905   1.000
    O161    O    0.37818   0.25788   0.66232   1.000
    O162    O    0.48180   0.21126   0.68734   1.000
    O163    O    0.48169   0.30112   0.65721   1.000
    O164    O    0.54419   0.27161   0.65720   1.000
    C165    C    0.45752   0.75355   0.67905   1.000
    O166    O    0.48181   0.71125   0.68734   1.000
    O167    O    0.54420   0.77161   0.65720   1.000
    O168    O    0.48169   0.80112   0.65721   1.000
    O169    O    0.37818   0.75788   0.66232   1.000
    C170    C    0.47395   0.90444   0.11657   1.000
    O171    O    0.48590   0.89156   0.17852   1.000
    C172    C    0.02608   0.09555   0.88343   1.000
    O173    O    0.01414   0.10843   0.82148   1.000
    O174    O    0.97375   0.04897   0.92243   1.000
    C175    C    0.36032   0.55793   0.51310   1.000
    O176    O    0.32115   0.54490   0.57614   1.000
    O177    O    0.39731   0.50743   0.53770   1.000
    O178    O    0.33587   0.60988   0.47636   1.000
    C179    C    0.77618   0.46308   0.88324   1.000
    O180    O    0.76421   0.48111   0.82128   1.000
    C181    C    0.20757   0.90696   0.67903   1.000
    O182    O    0.12822   0.91100   0.66230   1.000
    O183    O    0.23173   0.87032   0.65718   1.000
    O184    O    0.29423   0.89984   0.65719   1.000
    O185    O    0.23183   0.94515   0.68728   1.000
    C186    C    0.88967   0.31469   0.48678   1.000
    O187    O    0.91416   0.34823   0.52355   1.000
    O188    O    0.85266   0.27642   0.46223   1.000
    O189    O    0.92885   0.33310   0.42371   1.000
    C190    C    0.86034   0.05793   0.51310   1.000
    O191    O    0.82116   0.04490   0.57615   1.000
    O192    O    0.89732   0.00743   0.53770   1.000
    O193    O    0.83588   0.10988   0.47636   1.000
    C194    C    0.11037   0.68531   0.51322   1.000
    O195    O    0.07119   0.66690   0.57629   1.000
    O196    O    0.08588   0.65177   0.47645   1.000
    O197    O    0.14738   0.72358   0.53777   1.000
    C198    C    0.63972   0.94206   0.48690   1.000
    O199    O    0.60274   0.99257   0.46230   1.000
    O200    O    0.62877   0.98157   0.43824   1.000
    O201    O    0.66417   0.89012   0.52364   1.000
    O202    O    0.67889   0.95506   0.42384   1.000
    C203    C    0.79247   0.59303   0.32097   1.000
    O204    O    0.76821   0.55485   0.31272   1.000
    O205    O    0.70581   0.60015   0.34280   1.000
    O206    O    0.73184   0.58915   0.31875   1.000
    O207    O    0.76831   0.62967   0.34281   1.000
    O208    O    0.87183   0.58900   0.33769   1.000
    C209    C    0.22385   0.03692   0.11674   1.000
    O210    O    0.27627   0.00995   0.07767   1.000
    O211    O    0.23583   0.01873   0.17869   1.000
    O212    O    0.18148   0.04714   0.16628   1.000
    C213    C    0.13970   0.94206   0.48690   1.000
    O214    O    0.16416   0.89012   0.52364   1.000
    O215    O    0.17888   0.95506   0.42384   1.000
    O216    O    0.10272   0.99257   0.46230   1.000
    O217    O    0.12875   0.98157   0.43824   1.000
    C218    C    0.11037   0.18531   0.51322   1.000
    O219    O    0.14737   0.22358   0.53777   1.000
    O220    O    0.07118   0.16690   0.57629   1.000
    O221    O    0.08588   0.15177   0.47645   1.000
    C222    C    0.77619   0.96308   0.88324   1.000
    O223    O    0.76421   0.98111   0.82129   1.000
    C224    C    0.20756   0.40696   0.67903   1.000
    O225    O    0.23173   0.37032   0.65718   1.000
    O226    O    0.29423   0.39984   0.65719   1.000
    O227    O    0.12821   0.41100   0.66230   1.000
    O228    O    0.23183   0.44515   0.68727   1.000
    C229    C    0.70758   0.90696   0.67903   1.000
    O230    O    0.73175   0.87032   0.65718   1.000
    O231    O    0.79425   0.89984   0.65719   1.000
    O232    O    0.62822   0.91100   0.66230   1.000
    O233    O    0.73185   0.94515   0.68728   1.000
    C234    C    0.61038   0.18531   0.51322   1.000
    O235    O    0.64739   0.22358   0.53777   1.000
    O236    O    0.58589   0.15177   0.47645   1.000
    O237    O    0.57120   0.16690   0.57629   1.000
    C238    C    0.38965   0.31469   0.48678   1.000
    O239    O    0.35265   0.27642   0.46223   1.000
    O240    O    0.41414   0.34823   0.52355   1.000
    O241    O    0.42884   0.33310   0.42371   1.000
    C242    C    0.38966   0.81469   0.48678   1.000
    O243    O    0.35265   0.77642   0.46223   1.000
    O244    O    0.42884   0.83310   0.42371   1.000
    O245    O    0.41415   0.84823   0.52355   1.000
    C246    C    0.95752   0.25355   0.67906   1.000
    O247    O    0.87818   0.25788   0.66233   1.000
    O248    O    0.98181   0.21126   0.68735   1.000
    O249    O    0.04419   0.27161   0.65721   1.000
    O250    O    0.98169   0.30112   0.65722   1.000
    C251    C    0.52609   0.09555   0.88343   1.000
    O252    O    0.51414   0.10843   0.82147   1.000
    O253    O    0.47374   0.04897   0.92243   1.000
    C254    C    0.27617   0.96308   0.88324   1.000
    O255    O    0.26420   0.98111   0.82129   1.000
    O256    O    0.30241   0.45948   0.91550   1.000
    O257    O    0.59699   0.43313   0.51891   1.000
    O258    O    0.90306   0.56686   0.48108   1.000
    O259    O    0.94773   0.91704   0.08434   1.000
    O260    O    0.65310   0.69241   0.48118   1.000
    O261    O    0.15308   0.19241   0.48118   1.000
    O262    O    0.44772   0.91704   0.08434   1.000
    O263    O    0.30241   0.95948   0.91550   1.000
    O264    O    0.80243   0.95948   0.91550   1.000
    O265    O    0.59699   0.93313   0.51891   1.000
    O266    O    0.84696   0.80758   0.51882   1.000
    O267    O    0.40305   0.56686   0.48108   1.000
    O268    O    0.94772   0.41704   0.08434   1.000
    O269    O    0.09699   0.93313   0.51891   1.000
    O270    O    0.84696   0.30758   0.51882   1.000
    O271    O    0.34695   0.80758   0.51882   1.000
    O272    O    0.65309   0.19241   0.48118   1.000
    O273    O    0.15308   0.69241   0.48118   1.000
    O274    O    0.44772   0.41704   0.08434   1.000
    O275    O    0.90305   0.06686   0.48108   1.000
    O276    O    0.34694   0.30758   0.51882   1.000
    O277    O    0.40305   0.06686   0.48108   1.000
    O278    O    0.80242   0.45948   0.91550   1.000
    O279    O    0.09698   0.43313   0.51891   1.000
loop_
    _geom_bond_atom_site_label_1
    _geom_bond_atom_site_label_2
    _geom_bond_distance
    _geom_bond_site_symmetry_2
    _ccdc_geom_bond_type
    N24    O25       1.41743      .   S
    Zr7    O25       2.62819      .   S
    N24    O26       0.92059      .   S
    Zr15   O26       1.00338      .   S
    N27    O28       1.41758      .   S
    Zr10   O28       2.62894      .   S
    N29    O30       0.92130  1_565   S
    Zr12   O30       1.00433      .   S
    N29    O31       1.41821  1_565   S
    Zr4    O31       2.62907      .   S
    N32    O33       1.41758      .   S
    Zr11   O33       2.62894      .   S
    N34    O35       1.41742      .   S
    Zr5    O35       2.62819      .   S
    N34    O36       0.92059      .   S
    Zr13   O36       1.00338      .   S
    N37    O38       1.41753      .   S
    Zr9    O38       2.62890      .   S
    N39    O40       1.41744  1_545   S
    Zr19   O40       2.62825      .   S
    N41    O42       1.41752      .   S
    Zr22   O42       2.62890      .   S
    N43    O44       1.41820  1_565   S
    Zr6    O44       2.62906      .   S
    N43    O45       0.92130  1_565   S
    Zr14   O45       1.00433      .   S
    N46    O47       1.41758      .   S
    Zr20   O47       2.62895      .   S
    N48    O49       1.41753      .   S
    Zr23   O49       2.62890      .   S
    N50    O51       1.41758      .   S
    Zr21   O51       2.62895      .   S
    N52    O53       1.41753      .   S
    Zr8    O53       2.62890      .   S
    N54    O55       1.41744  1_545   S
    Zr17   O55       2.62825      .   S
    N56    O57       1.41728      .   S
    Zr16   O57       2.62803      .   S
    N58    O59       1.41728      .   S
    Zr18   O59       2.62803      .   S
    C60    O61       1.00696      .   S
    N34    O61       1.88175      .   S
    C60    O62       1.14259      .   S
    Zr0    O62       2.30067  1_556   S
    C60    O63       1.00947      .   S
    Zr13   O63       2.26484      .   S
    C64    O65       0.98495      .   S
    Zr5    O65       2.14562      .   S
    C64    O66       1.11642  1_455   S
    Zr23   O66       2.34222      .   S
    C64    O67       0.91219      .   S
    N48    O67       1.59381  1_655   S
    C64    O68       1.04061      .   S
    Zr21   O68       2.17755      .   S
    C69    O70       1.12992      .   S
    Zr8    O70       2.30368      .   S
    C69    O71       1.12684      .   S
    Zr5    O71       2.31916      .   S
    C69    O72       0.98142      .   S
    Zr13   O72       2.28854      .   S
    C69    O73       1.05816      .   S
    N34    O73       2.04323      .   S
    C74    O75       1.11653      .   S
    Zr21   O75       2.34233      .   S
    C74    O76       0.98496      .   S
    Zr7    O76       2.14563      .   S
    C74    O77       0.91220      .   S
    N50    O77       1.59382      .   S
    C74    O78       1.04066      .   S
    Zr23   O78       2.17760      .   S
    C79    O80       1.04078      .   S
    Zr7    O80       2.17738      .   S
    C79    O81       0.91230      .   S
    N34    O81       1.59409      .   S
    C79    O82       1.11625      .   S
    Zr5    O82       2.34148      .   S
    C79    O83       0.75738      .   S
    Zr13   O83       1.68624      .   S
    C79    O84       0.98459      .   S
    Zr21   O84       2.14495      .   S
    C85    O86       1.14321  1_455   S
    Zr2    O86       2.30237      .   S
    C85    O87       1.00697      .   S
    N37    O87       1.88184      .   S
    C88    O89       0.91220      .   S
    N46    O89       1.59382      .   S
    C88    O90       1.04066      .   S
    Zr22   O90       2.17760      .   S
    C88    O91       0.98496      .   S
    Zr6    O91       2.14563      .   S
    C88    O92       1.11653      .   S
    Zr20   O92       2.34233      .   S
    C93    O94       1.04079      .   S
    Zr16   O94       2.17740      .   S
    C93    O95       0.91222      .   S
    N58    O95       1.59381      .   S
    C93    O96       0.98459      .   S
    Zr10   O96       2.14501      .   S
    C93    O97       1.11625      .   S
    Zr18   O97       2.34151      .   S
    C98    O99       1.00709      .   S
    N56    O99       1.88204      .   S
    C100   O101      1.14326      .   S
    Zr0    O101      2.30242      .   S
    C100   O102      1.00698      .   S
    N32    O102      1.88184      .   S
    C103   O104      0.98142      .   S
    Zr15   O104      2.28854      .   S
    C103   O105      1.12684      .   S
    Zr7    O105      2.31916      .   S
    C103   O106      1.12992      .   S
    Zr10   O106      2.30368      .   S
    C103   O107      1.05816      .   S
    N24    O107      2.04323      .   S
    C108   O109      1.00696      .   S
    N46    O109      1.88177      .   S
    C110   O111      1.12993      .   S
    Zr23   O111      2.30372      .   S
    C110   O112      1.05797      .   S
    N58    O112      2.04274      .   S
    C110   O113      1.12684      .   S
    Zr18   O113      2.31914      .   S
    C114   O115      1.00695      .   S
    N41    O115      1.88177      .   S
    C116   O117      0.91286      .   S
    N43    O117      1.59582  1_565   S
    C116   O118      1.11624      .   S
    Zr6    O118      2.34148      .   S
    C116   O119      0.75738      .   S
    Zr14   O119      1.68623      .   S
    C116   O120      0.98458      .   S
    Zr22   O120      2.14494      .   S
    C116   O121      1.04069      .   S
    Zr4    O121      2.17714  1_455   S
    C122   O123      0.91219      .   S
    N41    O123      1.59381  1_655   S
    C122   O124      1.11642  1_455   S
    Zr22   O124      2.34222      .   S
    C122   O125      0.98495      .   S
    Zr4    O125      2.14562      .   S
    C122   O126      1.04061      .   S
    Zr20   O126      2.17755      .   S
    C127   O128      1.05812      .   S
    N54    O128      2.04321      .   S
    C127   O129      1.12993      .   S
    Zr20   O129      2.30372      .   S
    C127   O130      1.12685      .   S
    Zr17   O130      2.31919  1_565   S
    C131   O132      1.05839      .   S
    N48    O132      2.04378      .   S
    C131   O133      1.12733      .   S
    Zr23   O133      2.32030      .   S
    C131   O134      1.12955      .   S
    Zr19   O134      2.30283      .   S
    C135   O136      1.00695      .   S
    N48    O136      1.88177      .   S
    C137   O138      1.00712      .   S
    N43    O138      1.88166  1_565   S
    C137   O139      1.00948      .   S
    Zr14   O139      2.26484      .   S
    C137   O140      1.14261      .   S
    Zr3    O140      2.30072  1_566   S
    C141   O142      1.12730      .   S
    Zr11   O142      2.32021      .   S
    C141   O143      1.05835      .   S
    N32    O143      2.04370      .   S
    C141   O144      1.12958      .   S
    Zr7    O144      2.30293      .   S
    C145   O146      1.14259      .   S
    Zr2    O146      2.30067  1_556   S
    C145   O147      1.00696      .   S
    N24    O147      1.88175      .   S
    C145   O148      1.00947      .   S
    Zr15   O148      2.26484      .   S
    C149   O150      0.98459      .   S
    Zr20   O150      2.14495      .   S
    C149   O151      1.11625      .   S
    Zr4    O151      2.34148      .   S
    C149   O152      0.75738      .   S
    Zr12   O152      1.68623      .   S
    C149   O153      0.91286      .   S
    N29    O153      1.59581  1_565   S
    C149   O154      1.04078      .   S
    Zr6    O154      2.17738      .   S
    C155   O156      1.11641  1_655   S
    Zr9    O156      2.34220      .   S
    C155   O157      0.98495      .   S
    Zr19   O157      2.14562      .   S
    C155   O158      1.04057      .   S
    Zr11   O158      2.17753      .   S
    C155   O159      0.91218      .   S
    N37    O159      1.59379  1_455   S
    C160   O161      1.04062      .   S
    Zr8    O161      2.17758      .   S
    C160   O162      0.91219      .   S
    N27    O162      1.59380      .   S
    C160   O163      0.98496      .   S
    Zr16   O163      2.14563      .   S
    C160   O164      1.11652      .   S
    Zr10   O164      2.34231      .   S
    C165   O166      0.91220      .   S
    N32    O166      1.59380      .   S
    C165   O167      1.11652      .   S
    Zr11   O167      2.34231      .   S
    C165   O168      0.98496      .   S
    Zr17   O168      2.14563      .   S
    C165   O169      1.04062      .   S
    Zr9    O169      2.17758      .   S
    C170   O171      1.00696      .   S
    N50    O171      1.88177      .   S
    C172   O173      1.00695      .   S
    N52    O173      1.88179      .   S
    C172   O174      1.14320  1_455   S
    Zr3    O174      2.30237  1_565   S
    C175   O176      1.05797      .   S
    N56    O176      2.04274      .   S
    C175   O177      1.12683      .   S
    Zr16   O177      2.31914      .   S
    C175   O178      1.12993      .   S
    Zr21   O178      2.30372      .   S
    C179   O180      1.00709      .   S
    N58    O180      1.88204      .   S
    C181   O182      1.04071      .   S
    Zr19   O182      2.17717  1_655   S
    C181   O183      0.98459      .   S
    Zr9    O183      2.14501      .   S
    C181   O184      1.11625      .   S
    Zr17   O184      2.34151      .   S
    C181   O185      0.91231      .   S
    N54    O185      1.59408  1_545   S
    C186   O187      1.12955      .   S
    Zr18   O187      2.30283      .   S
    C186   O188      1.12733      .   S
    Zr22   O188      2.32030      .   S
    C186   O189      1.05839      .   S
    N41    O189      2.04378      .   S
    C190   O191      1.05812      .   S
    N39    O191      2.04321      .   S
    C190   O192      1.12685      .   S
    Zr19   O192      2.31919  1_565   S
    C190   O193      1.12993      .   S
    Zr22   O193      2.30372      .   S
    C194   O195      1.05833      .   S
    N37    O195      2.04367      .   S
    C194   O196      1.12958      .   S
    Zr5    O196      2.30293      .   S
    C194   O197      1.12730      .   S
    Zr9    O197      2.32021      .   S
    C198   O199      1.12685      .   S
    Zr6    O199      2.31921  1_545   S
    C198   O200      0.98144      .   S
    Zr14   O200      2.28856  1_545   S
    C198   O201      1.12992      .   S
    Zr11   O201      2.30368      .   S
    C198   O202      1.05821      .   S
    N43    O202      2.04330      .   S
    C203   O204      0.91230      .   S
    N24    O204      1.59409      .   S
    C203   O205      1.11625      .   S
    Zr7    O205      2.34148      .   S
    C203   O206      0.75738      .   S
    Zr15   O206      1.68624      .   S
    C203   O207      0.98459      .   S
    Zr23   O207      2.14495      .   S
    C203   O208      1.04069      .   S
    Zr5    O208      2.17715  1_455   S
    C209   O210      1.14261      .   S
    Zr1    O210      2.30072  1_566   S
    C209   O211      1.00712      .   S
    N29    O211      1.88166  1_565   S
    C209   O212      1.00948      .   S
    Zr12   O212      2.26484      .   S
    C213   O214      1.12992      .   S
    Zr9    O214      2.30368      .   S
    C213   O215      1.05821      .   S
    N29    O215      2.04330      .   S
    C213   O216      1.12685      .   S
    Zr4    O216      2.31922  1_545   S
    C213   O217      0.98144      .   S
    Zr12   O217      2.28856  1_545   S
    C218   O219      1.12730      .   S
    Zr8    O219      2.32021      .   S
    C218   O220      1.05835      .   S
    N52    O220      2.04371      .   S
    C218   O221      1.12958      .   S
    Zr4    O221      2.30293      .   S
    C222   O223      1.00693      .   S
    N39    O223      1.88153  1_545   S
    C224   O225      0.98459      .   S
    Zr8    O225      2.14501      .   S
    C224   O226      1.11625      .   S
    Zr16   O226      2.34151      .   S
    C224   O227      1.04071      .   S
    Zr18   O227      2.17717  1_655   S
    C224   O228      0.91222      .   S
    N56    O228      1.59381      .   S
    C229   O230      0.98459      .   S
    Zr11   O230      2.14501      .   S
    C229   O231      1.11625      .   S
    Zr19   O231      2.34151      .   S
    C229   O232      1.04079      .   S
    Zr17   O232      2.17740      .   S
    C229   O233      0.91231      .   S
    N39    O233      1.59408  1_545   S
    C234   O235      1.12730      .   S
    Zr10   O235      2.32021      .   S
    C234   O236      1.12958      .   S
    Zr6    O236      2.30293      .   S
    C234   O237      1.05835      .   S
    N27    O237      2.04369      .   S
    C238   O239      1.12733      .   S
    Zr20   O239      2.32030      .   S
    C238   O240      1.12955      .   S
    Zr16   O240      2.30283      .   S
    C238   O241      1.05840      .   S
    N46    O241      2.04381      .   S
    C242   O243      1.12733      .   S
    Zr21   O243      2.32030      .   S
    C242   O244      1.05840      .   S
    N50    O244      2.04381      .   S
    C242   O245      1.12955      .   S
    Zr17   O245      2.30283      .   S
    C246   O247      1.04060      .   S
    Zr10   O247      2.17758      .   S
    C246   O248      0.91218      .   S
    N52    O248      1.59381  1_455   S
    C246   O249      1.11643  1_655   S
    Zr8    O249      2.34223      .   S
    C246   O250      0.98496      .   S
    Zr18   O250      2.14563      .   S
    C251   O252      1.00698      .   S
    N27    O252      1.88184      .   S
    C251   O253      1.14326      .   S
    Zr1    O253      2.30242  1_565   S
    C254   O255      1.00693      .   S
    N54    O255      1.88153  1_545   S
    C98    O256      0.64015      .   S
    Zr0    O256      1.71219      .   S
    C103   O257      0.68797      .   S
    Zr16   O257      1.86306      .   S
    C110   O258      0.68792      .   S
    Zr5    O258      1.86294  1_455   S
    C135   O259      0.63986      .   S
    Zr3    O259      1.71187  1_556   S
    C141   O260      0.68805      .   S
    Zr23   O260      1.86315      .   S
    Zr20   O261      1.86316      .   S
    C218   O261      0.68805      .   S
    Zr1    O262      1.71194  1_556   S
    C170   O262      0.63987      .   S
    Zr1    O263      1.71219      .   S
    C254   O263      0.64014      .   S
    Zr3    O264      1.71219      .   S
    C222   O264      0.64014      .   S
    C198   O265      0.68797      .   S
    Zr17   O265      1.86306      .   S
    Zr11   O266      1.86308      .   S
    C131   O266      0.68803      .   S
    Zr7    O267      1.86312      .   S
    C175   O267      0.68798      .   S
    C114   O268      0.63986      .   S
    Zr2    O268      1.71187  1_556   S
    C213   O269      0.68791      .   S
    Zr19   O269      1.86288  1_655   S
    Zr10   O270      1.86308      .   S
    C186   O270      0.68803      .   S
    Zr9    O271      1.86308      .   S
    C242   O271      0.68803      .   S
    C234   O272      0.68805      .   S
    Zr22   O272      1.86316      .   S
    Zr21   O273      1.86316      .   S
    C194   O273      0.68805      .   S
    Zr0    O274      1.71193  1_556   S
    C108   O274      0.63987      .   S
    C190   O275      0.68792      .   S
    Zr4    O275      1.86293  1_455   S
    Zr8    O276      1.86308      .   S
    C238   O276      0.68803      .   S
    Zr6    O277      1.86312      .   S
    C127   O277      0.68798      .   S
    Zr2    O278      1.71219      .   S
    C179   O278      0.64015      .   S
    Zr18   O279      1.86288  1_655   S
    C69    O279      0.68791      .   S
