# CIF file generated by openbabel 2.4.90, see http://openbabel.sf.net
data_I
_chemical_name_common ''
_cell_length_a 15.37
_cell_length_b 20.104
_cell_length_c 17.697
_cell_angle_alpha 90
_cell_angle_beta 89.987
_cell_angle_gamma 89.999
_space_group_name_H-M_alt 'P 1'
_space_group_name_Hall 'P 1'
loop_
    _symmetry_equiv_pos_as_xyz
    x,y,z
loop_
    _atom_site_label
    _atom_site_type_symbol
    _atom_site_fract_x
    _atom_site_fract_y
    _atom_site_fract_z
    _atom_site_occupancy
    N0      N    0.35328   0.99994   0.83322   1.000
    N1      N    0.35328   0.49994   0.83322   1.000
    N2      N    0.85328   0.99994   0.83322   1.000
    N3      N    0.85328   0.49994   0.83322   1.000
    N4      N    0.39709   0.50002   0.33337   1.000
    N5      N    0.39709   0.00002   0.33337   1.000
    N6      N    0.89709   0.50002   0.33337   1.000
    N7      N    0.89709   0.00002   0.33337   1.000
    N8      N    0.14671   0.24994   0.16675   1.000
    N9      N    0.14671   0.74994   0.16675   1.000
    N10     N    0.64671   0.24994   0.16675   1.000
    N11     N    0.64671   0.74994   0.16675   1.000
    N12     N    0.10291   0.25002   0.66662   1.000
    N13     N    0.10291   0.75002   0.66662   1.000
    N14     N    0.60291   0.25002   0.66662   1.000
    N15     N    0.60291   0.75002   0.66662   1.000
    N16     N    0.14672   0.50007   0.16674   1.000
    N17     N    0.14672   0.00007   0.16674   1.000
    N18     N    0.64672   0.50007   0.16674   1.000
    N19     N    0.64672   0.00007   0.16674   1.000
    N20     N    0.10291   0.99999   0.66662   1.000
    N21     N    0.10291   0.49999   0.66662   1.000
    N22     N    0.60291   0.99999   0.66662   1.000
    N23     N    0.60291   0.49999   0.66662   1.000
    N24     N    0.35328   0.25007   0.83322   1.000
    N25     N    0.35328   0.75007   0.83323   1.000
    N26     N    0.85328   0.25007   0.83323   1.000
    N27     N    0.85328   0.75007   0.83323   1.000
    N28     N    0.39708   0.24999   0.33337   1.000
    N29     N    0.39708   0.74999   0.33337   1.000
    N30     N    0.89708   0.24999   0.33337   1.000
    N31     N    0.89708   0.74999   0.33337   1.000
    N32     N    0.13018   0.37500   0.91549   1.000
    N33     N    0.13018   0.87501   0.91549   1.000
    N34     N    0.63018   0.37501   0.91549   1.000
    N35     N    0.63018   0.87501   0.91549   1.000
    N36     N    0.11973   0.12500   0.41556   1.000
    N37     N    0.11973   0.62501   0.41556   1.000
    N38     N    0.61973   0.12500   0.41556   1.000
    N39     N    0.61973   0.62501   0.41556   1.000
    N40     N    0.36982   0.12500   0.08450   1.000
    N41     N    0.36982   0.62501   0.08450   1.000
    N42     N    0.86982   0.12500   0.08450   1.000
    N43     N    0.86982   0.62501   0.08450   1.000
    N44     N    0.88027   0.37500   0.58443   1.000
    N45     N    0.88027   0.87501   0.58443   1.000
    N46     N    0.38027   0.37500   0.58443   1.000
    N47     N    0.38027   0.87501   0.58443   1.000
    Zr48    Zr   0.24068   0.12500   0.92429   1.000
    O49     O    0.29698   0.12500   0.97713   1.000
    O50     O    0.29136   0.16667   0.89346   1.000
    O51     O    0.29136   0.08334   0.89346   1.000
    Zr52    Zr   0.24068   0.62501   0.92429   1.000
    O53     O    0.29698   0.62501   0.97713   1.000
    O54     O    0.29137   0.66668   0.89346   1.000
    O55     O    0.29136   0.58334   0.89346   1.000
    Zr56    Zr   0.74068   0.12500   0.92429   1.000
    O57     O    0.79136   0.08334   0.89346   1.000
    O58     O    0.79698   0.12500   0.97713   1.000
    O59     O    0.79137   0.16667   0.89346   1.000
    Zr60    Zr   0.74069   0.62501   0.92429   1.000
    O61     O    0.79698   0.62501   0.97713   1.000
    O62     O    0.79137   0.66668   0.89346   1.000
    O63     O    0.79136   0.58334   0.89346   1.000
    Zr64    Zr   0.51034   0.37500   0.42438   1.000
    O65     O    0.45945   0.33335   0.39357   1.000
    O66     O    0.45373   0.37500   0.47716   1.000
    O67     O    0.45945   0.41666   0.39357   1.000
    Zr68    Zr   0.51034   0.87501   0.42438   1.000
    O69     O    0.45945   0.91666   0.39357   1.000
    O70     O    0.45945   0.83336   0.39357   1.000
    O71     O    0.45373   0.87501   0.47716   1.000
    Zr72    Zr   0.01034   0.37500   0.42438   1.000
    O73     O    0.95945   0.41666   0.39357   1.000
    O74     O    0.95373   0.37500   0.47716   1.000
    O75     O    0.95945   0.33335   0.39357   1.000
    Zr76    Zr   0.01034   0.87501   0.42438   1.000
    O77     O    0.95945   0.91666   0.39357   1.000
    O78     O    0.95373   0.87501   0.47716   1.000
    O79     O    0.95945   0.83336   0.39357   1.000
    Zr80    Zr   0.25931   0.37500   0.07571   1.000
    O81     O    0.20863   0.41667   0.10653   1.000
    O82     O    0.20301   0.37500   0.02286   1.000
    O83     O    0.20863   0.33333   0.10653   1.000
    Zr84    Zr   0.25931   0.87501   0.07571   1.000
    O85     O    0.20863   0.91668   0.10653   1.000
    O86     O    0.20302   0.87501   0.02286   1.000
    O87     O    0.20863   0.83334   0.10653   1.000
    Zr88    Zr   0.75931   0.37500   0.07571   1.000
    O89     O    0.70302   0.37500   0.02286   1.000
    O90     O    0.70863   0.33333   0.10653   1.000
    O91     O    0.70863   0.41667   0.10653   1.000
    Zr92    Zr   0.75931   0.87501   0.07571   1.000
    O93     O    0.70302   0.87501   0.02286   1.000
    O94     O    0.70863   0.91668   0.10653   1.000
    O95     O    0.70863   0.83334   0.10653   1.000
    Zr96    Zr   0.98965   0.12500   0.57561   1.000
    O97     O    0.04055   0.16666   0.60642   1.000
    O98     O    0.04626   0.12500   0.52283   1.000
    O99     O    0.04054   0.08335   0.60642   1.000
    Zr100   Zr   0.98965   0.62501   0.57561   1.000
    O101    O    0.04626   0.62501   0.52283   1.000
    O102    O    0.04054   0.58336   0.60642   1.000
    O103    O    0.04055   0.66666   0.60642   1.000
    Zr104   Zr   0.48965   0.12500   0.57561   1.000
    O105    O    0.54054   0.08335   0.60642   1.000
    O106    O    0.54626   0.12500   0.52283   1.000
    O107    O    0.54055   0.16666   0.60642   1.000
    Zr108   Zr   0.48965   0.62501   0.57561   1.000
    O109    O    0.54054   0.58336   0.60642   1.000
    O110    O    0.54055   0.66666   0.60642   1.000
    O111    O    0.54626   0.62501   0.52283   1.000
    Zr112   Zr   0.98853   0.87501   0.76273   1.000
    O113    O    0.02687   0.83400   0.73190   1.000
    O114    O    0.02687   0.91602   0.73190   1.000
    O115    O    0.94419   0.83416   0.78604   1.000
    O116    O    0.95189   0.87501   0.70456   1.000
    O117    O    0.03458   0.87501   0.81301   1.000
    O118    O    0.94419   0.91586   0.78603   1.000
    Zr119   Zr   0.23775   0.37500   0.73720   1.000
    O120    O    0.27650   0.33401   0.76800   1.000
    O121    O    0.28410   0.37500   0.68690   1.000
    O122    O    0.19359   0.33412   0.71386   1.000
    O123    O    0.20139   0.37500   0.79537   1.000
    O124    O    0.19359   0.41589   0.71386   1.000
    O125    O    0.27650   0.41600   0.76799   1.000
    Zr126   Zr   0.98853   0.37500   0.76273   1.000
    O127    O    0.02687   0.33400   0.73190   1.000
    O128    O    0.94419   0.33415   0.78604   1.000
    O129    O    0.95189   0.37500   0.70456   1.000
    O130    O    0.02687   0.41601   0.73190   1.000
    O131    O    0.03458   0.37500   0.81301   1.000
    O132    O    0.94419   0.41586   0.78603   1.000
    Zr133   Zr   0.23775   0.87501   0.73720   1.000
    O134    O    0.19359   0.83412   0.71386   1.000
    O135    O    0.27650   0.83402   0.76800   1.000
    O136    O    0.28410   0.87501   0.68690   1.000
    O137    O    0.19359   0.91590   0.71386   1.000
    O138    O    0.20139   0.87501   0.79537   1.000
    O139    O    0.27650   0.91600   0.76799   1.000
    Zr140   Zr   0.73775   0.37500   0.73720   1.000
    O141    O    0.77650   0.41600   0.76799   1.000
    O142    O    0.69359   0.33412   0.71386   1.000
    O143    O    0.77650   0.33401   0.76800   1.000
    O144    O    0.70139   0.37500   0.79537   1.000
    O145    O    0.78410   0.37500   0.68690   1.000
    O146    O    0.69359   0.41589   0.71386   1.000
    Zr147   Zr   0.73775   0.87501   0.73720   1.000
    O148    O    0.77650   0.91600   0.76799   1.000
    O149    O    0.69359   0.83412   0.71386   1.000
    O150    O    0.77650   0.83402   0.76800   1.000
    O151    O    0.70139   0.87501   0.79537   1.000
    O152    O    0.78410   0.87501   0.68690   1.000
    O153    O    0.69359   0.91590   0.71386   1.000
    Zr154   Zr   0.01147   0.12500   0.23725   1.000
    O155    O    0.97312   0.08400   0.26808   1.000
    O156    O    0.05580   0.16586   0.21394   1.000
    O157    O    0.97312   0.16601   0.26808   1.000
    O158    O    0.04811   0.12500   0.29542   1.000
    O159    O    0.96541   0.12500   0.18697   1.000
    O160    O    0.05580   0.08415   0.21394   1.000
    Zr161   Zr   0.01147   0.62501   0.23725   1.000
    O162    O    0.97312   0.58400   0.26808   1.000
    O163    O    0.05580   0.66586   0.21394   1.000
    O164    O    0.97312   0.66602   0.26808   1.000
    O165    O    0.96541   0.62501   0.18697   1.000
    O166    O    0.05581   0.58415   0.21394   1.000
    O167    O    0.04811   0.62501   0.29542   1.000
    Zr168   Zr   0.51147   0.12500   0.23725   1.000
    O169    O    0.47312   0.08400   0.26808   1.000
    O170    O    0.55580   0.16586   0.21394   1.000
    O171    O    0.55580   0.08415   0.21394   1.000
    O172    O    0.46541   0.12500   0.18697   1.000
    O173    O    0.54811   0.12500   0.29542   1.000
    O174    O    0.47312   0.16601   0.26808   1.000
    Zr175   Zr   0.51147   0.62501   0.23725   1.000
    O176    O    0.47312   0.58400   0.26808   1.000
    O177    O    0.46541   0.62501   0.18697   1.000
    O178    O    0.55581   0.58415   0.21394   1.000
    O179    O    0.55580   0.66586   0.21394   1.000
    O180    O    0.54811   0.62501   0.29542   1.000
    O181    O    0.47312   0.66602   0.26808   1.000
    Zr182   Zr   0.26224   0.12500   0.26279   1.000
    O183    O    0.22349   0.16600   0.23198   1.000
    O184    O    0.29860   0.12500   0.20462   1.000
    O185    O    0.22350   0.08401   0.23198   1.000
    O186    O    0.30641   0.08412   0.28613   1.000
    O187    O    0.30641   0.16589   0.28613   1.000
    O188    O    0.21589   0.12500   0.31309   1.000
    Zr189   Zr   0.26224   0.62501   0.26279   1.000
    O190    O    0.30641   0.58412   0.28613   1.000
    O191    O    0.22350   0.66600   0.23198   1.000
    O192    O    0.22350   0.58401   0.23198   1.000
    O193    O    0.29860   0.62501   0.20462   1.000
    O194    O    0.30641   0.66589   0.28613   1.000
    O195    O    0.21589   0.62501   0.31309   1.000
    Zr196   Zr   0.76224   0.12500   0.26279   1.000
    O197    O    0.72350   0.16600   0.23198   1.000
    O198    O    0.72350   0.08401   0.23198   1.000
    O199    O    0.80641   0.16589   0.28613   1.000
    O200    O    0.71589   0.12500   0.31309   1.000
    O201    O    0.79860   0.12500   0.20462   1.000
    O202    O    0.80641   0.08412   0.28613   1.000
    Zr203   Zr   0.76224   0.62501   0.26279   1.000
    O204    O    0.72350   0.58401   0.23198   1.000
    O205    O    0.80641   0.66589   0.28613   1.000
    O206    O    0.79860   0.62501   0.20462   1.000
    O207    O    0.72350   0.66600   0.23198   1.000
    O208    O    0.80641   0.58412   0.28613   1.000
    O209    O    0.71589   0.62501   0.31309   1.000
    Zr210   Zr   0.48853   0.37500   0.76273   1.000
    O211    O    0.52687   0.33400   0.73190   1.000
    O212    O    0.52687   0.41601   0.73190   1.000
    O213    O    0.44419   0.33415   0.78602   1.000
    O214    O    0.53458   0.37500   0.81301   1.000
    O215    O    0.45189   0.37500   0.70456   1.000
    O216    O    0.44419   0.41586   0.78603   1.000
    Zr217   Zr   0.48853   0.87501   0.76273   1.000
    O218    O    0.52687   0.83400   0.73190   1.000
    O219    O    0.52687   0.91602   0.73190   1.000
    O220    O    0.44419   0.83416   0.78604   1.000
    O221    O    0.53458   0.87501   0.81301   1.000
    O222    O    0.45189   0.87501   0.70456   1.000
    O223    O    0.44419   0.91586   0.78603   1.000
loop_
    _geom_bond_atom_site_label_1
    _geom_bond_atom_site_label_2
    _geom_bond_distance
    _geom_bond_site_symmetry_2
    _ccdc_geom_bond_type
    Zr48   O49       1.27420      .   S
    N40    O49       2.20562  1_554   S
    Zr48   O50       1.26728      .   S
    N24    O50       2.20284      .   S
    Zr48   O51       1.26727      .   S
    N0     O51       2.20281  1_565   S
    Zr52   O53       1.27420      .   S
    N41    O53       2.20562  1_554   S
    Zr52   O54       1.26726      .   S
    N25    O54       2.20278      .   S
    Zr52   O55       1.26728      .   S
    N1     O55       2.20284      .   S
    Zr56   O57       1.26727      .   S
    N2     O57       2.20281  1_565   S
    Zr56   O58       1.27420      .   S
    N42    O58       2.20562  1_554   S
    Zr56   O59       1.26726      .   S
    N26    O59       2.20278      .   S
    Zr60   O61       1.27420      .   S
    N43    O61       2.20562  1_554   S
    Zr60   O62       1.26726      .   S
    N27    O62       2.20278      .   S
    Zr60   O63       1.26728      .   S
    N3     O63       2.20284      .   S
    Zr64   O65       1.26907      .   S
    N28    O65       2.20518      .   S
    Zr64   O66       1.27646      .   S
    N46    O66       2.20860      .   S
    Zr64   O67       1.26907      .   S
    N4     O67       2.20517      .   S
    Zr68   O69       1.26906      .   S
    N5     O69       2.20514  1_545   S
    Zr68   O70       1.26907      .   S
    N29    O70       2.20517      .   S
    Zr68   O71       1.27646      .   S
    N47    O71       2.20860      .   S
    Zr72   O73       1.26906  1_455   S
    N6     O73       2.20517      .   S
    Zr72   O74       1.27645  1_455   S
    N44    O74       2.20860      .   S
    Zr72   O75       1.26907  1_455   S
    N30    O75       2.20518      .   S
    Zr76   O77       1.26906  1_455   S
    N7     O77       2.20513  1_545   S
    Zr76   O78       1.27645  1_455   S
    N45    O78       2.20860      .   S
    Zr76   O79       1.26907  1_455   S
    N31    O79       2.20517      .   S
    Zr80   O81       1.26723      .   S
    N16    O81       2.20265      .   S
    Zr80   O82       1.27420      .   S
    N32    O82       2.20562  1_556   S
    Zr80   O83       1.26724      .   S
    N8     O83       2.20270      .   S
    Zr84   O85       1.26721      .   S
    N17    O85       2.20261  1_545   S
    Zr84   O86       1.27420      .   S
    N33    O86       2.20562  1_556   S
    Zr84   O87       1.26724      .   S
    N9     O87       2.20270      .   S
    Zr88   O89       1.27420      .   S
    N34    O89       2.20562  1_556   S
    Zr88   O90       1.26724      .   S
    N10    O90       2.20270      .   S
    Zr88   O91       1.26723      .   S
    N18    O91       2.20264      .   S
    Zr92   O93       1.27420      .   S
    N35    O93       2.20562  1_556   S
    Zr92   O94       1.26721      .   S
    N19    O94       2.20261  1_545   S
    Zr92   O95       1.26724      .   S
    N11    O95       2.20270      .   S
    Zr96   O97       1.26909  1_655   S
    N12    O97       2.20520      .   S
    Zr96   O98       1.27642  1_655   S
    N36    O98       2.20856      .   S
    Zr96   O99       1.26907  1_655   S
    N20    O99       2.20515  1_565   S
    Zr100  O101      1.27642  1_655   S
    N37    O101      2.20856      .   S
    Zr100  O102      1.26909  1_655   S
    N21    O102      2.20519      .   S
    Zr100  O103      1.26909  1_655   S
    N13    O103      2.20520      .   S
    Zr104  O105      1.26908      .   S
    N22    O105      2.20515  1_565   S
    Zr104  O106      1.27643      .   S
    N38    O106      2.20857      .   S
    Zr104  O107      1.26909      .   S
    N14    O107      2.20520      .   S
    Zr108  O109      1.26909      .   S
    N23    O109      2.20519      .   S
    Zr108  O110      1.26909      .   S
    N15    O110      2.20520      .   S
    Zr108  O111      1.27643      .   S
    N39    O111      2.20857      .   S
    Zr112  O113      1.15087  1_655   S
    N13    O113      2.35593      .   S
    Zr112  O114      1.15083  1_655   S
    N20    O114      2.35584      .   S
    Zr112  O115      1.14411      .   S
    N27    O115      2.34668      .   S
    Zr112  O116      1.17346      .   S
    N45    O116      2.39424      .   S
    Zr112  O117      1.13713  1_655   S
    N33    O117      2.33437      .   S
    Zr112  O118      1.14406      .   S
    N2     O118      2.34653      .   S
    Zr119  O120      1.15377      .   S
    N24    O120      2.36080      .   S
    Zr119  O121      1.13996      .   S
    N46    O121      2.33922      .   S
    Zr119  O122      1.14329      .   S
    N12    O122      2.34535      .   S
    Zr119  O123      1.17126      .   S
    N32    O123      2.39081      .   S
    Zr119  O124      1.14330      .   S
    N21    O124      2.34535      .   S
    Zr119  O125      1.15371      .   S
    N1     O125      2.36090      .   S
    Zr126  O127      1.15086  1_655   S
    N12    O127      2.35591      .   S
    Zr126  O128      1.14411      .   S
    N26    O128      2.34668      .   S
    Zr126  O129      1.17346      .   S
    N44    O129      2.39424      .   S
    Zr126  O130      1.15087  1_655   S
    N21    O130      2.35595      .   S
    Zr126  O131      1.13713  1_655   S
    N32    O131      2.33436      .   S
    Zr126  O132      1.14409      .   S
    N3     O132      2.34663      .   S
    Zr133  O134      1.14330      .   S
    N13    O134      2.34536      .   S
    Zr133  O135      1.15380      .   S
    N25    O135      2.36087      .   S
    Zr133  O136      1.13996      .   S
    N47    O136      2.33922      .   S
    Zr133  O137      1.14326      .   S
    N20    O137      2.34525      .   S
    Zr133  O138      1.17126      .   S
    N33    O138      2.39081      .   S
    Zr133  O139      1.15367      .   S
    N0     O139      2.36079      .   S
    Zr140  O141      1.15371      .   S
    N3     O141      2.36090      .   S
    Zr140  O142      1.14330      .   S
    N14    O142      2.34535      .   S
    Zr140  O143      1.15379      .   S
    N26    O143      2.36086      .   S
    Zr140  O144      1.17126      .   S
    N34    O144      2.39081      .   S
    Zr140  O145      1.13996      .   S
    N44    O145      2.33922      .   S
    Zr140  O146      1.14330      .   S
    N23    O146      2.34535      .   S
    Zr147  O148      1.15367      .   S
    N2     O148      2.36079      .   S
    Zr147  O149      1.14330      .   S
    N15    O149      2.34536      .   S
    Zr147  O150      1.15380      .   S
    N27    O150      2.36087      .   S
    Zr147  O151      1.17126      .   S
    N35    O151      2.39081      .   S
    Zr147  O152      1.13996      .   S
    N45    O152      2.33922      .   S
    Zr147  O153      1.14327      .   S
    N22    O153      2.34526      .   S
    Zr154  O155      1.15087  1_455   S
    N7     O155      2.35590      .   S
    Zr154  O156      1.14411      .   S
    N8     O156      2.34669      .   S
    Zr154  O157      1.15089  1_455   S
    N30    O157      2.35597      .   S
    Zr154  O158      1.17352      .   S
    N36    O158      2.39434      .   S
    Zr154  O159      1.13708  1_455   S
    N42    O159      2.33428      .   S
    Zr154  O160      1.14409      .   S
    N17    O160      2.34664      .   S
    Zr161  O162      1.15090  1_455   S
    N6     O162      2.35600      .   S
    Zr161  O163      1.14411      .   S
    N9     O163      2.34669      .   S
    Zr161  O164      1.15089  1_455   S
    N31    O164      2.35598      .   S
    Zr161  O165      1.13708  1_455   S
    N43    O165      2.33428      .   S
    Zr161  O166      1.14412      .   S
    N16    O166      2.34673      .   S
    Zr161  O167      1.17352      .   S
    N37    O167      2.39434      .   S
    Zr168  O169      1.15087      .   S
    N5     O169      2.35590      .   S
    Zr168  O170      1.14411      .   S
    N10    O170      2.34669      .   S
    Zr168  O171      1.14409      .   S
    N19    O171      2.34665      .   S
    Zr168  O172      1.13708      .   S
    N40    O172      2.33428      .   S
    Zr168  O173      1.17352      .   S
    N38    O173      2.39434      .   S
    Zr168  O174      1.15089      .   S
    N28    O174      2.35597      .   S
    Zr175  O176      1.15090      .   S
    N4     O176      2.35600      .   S
    Zr175  O177      1.13708      .   S
    N41    O177      2.33428      .   S
    Zr175  O178      1.14412      .   S
    N18    O178      2.34673      .   S
    Zr175  O179      1.14412      .   S
    N11    O179      2.34669      .   S
    Zr175  O180      1.17352      .   S
    N39    O180      2.39434      .   S
    Zr175  O181      1.15089      .   S
    N29    O181      2.35598      .   S
    Zr182  O183      1.15383      .   S
    N8     O183      2.36093      .   S
    Zr182  O184      1.17126      .   S
    N40    O184      2.39081      .   S
    Zr182  O185      1.15382      .   S
    N17    O185      2.36091      .   S
    Zr182  O186      1.14327      .   S
    N5     O186      2.34526      .   S
    Zr182  O187      1.14330      .   S
    N28    O187      2.34535      .   S
    Zr182  O188      1.13996      .   S
    N36    O188      2.33922      .   S
    Zr189  O190      1.14330      .   S
    N4     O190      2.34535      .   S
    Zr189  O191      1.15383      .   S
    N9     O191      2.36094      .   S
    Zr189  O192      1.15386      .   S
    N16    O192      2.36101      .   S
    Zr189  O193      1.17126      .   S
    N41    O193      2.39081      .   S
    Zr189  O194      1.14330      .   S
    N29    O194      2.34536      .   S
    Zr189  O195      1.13996      .   S
    N37    O195      2.33922      .   S
    Zr196  O197      1.15383      .   S
    N10    O197      2.36094      .   S
    Zr196  O198      1.15382      .   S
    N19    O198      2.36091      .   S
    Zr196  O199      1.14329      .   S
    N30    O199      2.34535      .   S
    Zr196  O200      1.13996      .   S
    N38    O200      2.33922      .   S
    Zr196  O201      1.17126      .   S
    N42    O201      2.39081      .   S
    Zr196  O202      1.14326      .   S
    N7     O202      2.34526      .   S
    Zr203  O204      1.15386      .   S
    N18    O204      2.36101      .   S
    Zr203  O205      1.14330      .   S
    N31    O205      2.34535      .   S
    Zr203  O206      1.17126      .   S
    N43    O206      2.39081      .   S
    Zr203  O207      1.15383      .   S
    N11    O207      2.36094      .   S
    Zr203  O208      1.14329      .   S
    N6     O208      2.34535      .   S
    Zr203  O209      1.13996      .   S
    N39    O209      2.33922      .   S
    Zr210  O211      1.15086      .   S
    N14    O211      2.35592      .   S
    Zr210  O212      1.15087      .   S
    N23    O212      2.35595      .   S
    Zr210  O213      1.14404      .   S
    N24    O213      2.34668      .   S
    Zr210  O214      1.13714      .   S
    N34    O214      2.33437      .   S
    Zr210  O215      1.17346      .   S
    N46    O215      2.39424      .   S
    Zr210  O216      1.14409      .   S
    N1     O216      2.34663      .   S
    Zr217  O218      1.15087      .   S
    N15    O218      2.35593      .   S
    Zr217  O219      1.15084      .   S
    N22    O219      2.35584      .   S
    Zr217  O220      1.14411      .   S
    N25    O220      2.34668      .   S
    Zr217  O221      1.13713      .   S
    N35    O221      2.33437      .   S
    Zr217  O222      1.17346      .   S
    N47    O222      2.39424      .   S
    Zr217  O223      1.14406      .   S
    N0     O223      2.34653      .   S
