# CIF file generated by openbabel 2.4.90, see http://openbabel.sf.net
data_I
_chemical_name_common ''
_cell_length_a 18.923
_cell_length_b 18.949
_cell_length_c 18.947
_cell_angle_alpha 90
_cell_angle_beta 89.998
_cell_angle_gamma 89.999
_space_group_name_H-M_alt 'P 1'
_space_group_name_Hall 'P 1'
loop_
    _symmetry_equiv_pos_as_xyz
    x,y,z
loop_
    _atom_site_label
    _atom_site_type_symbol
    _atom_site_fract_x
    _atom_site_fract_y
    _atom_site_fract_z
    _atom_site_occupancy
    Cu0     Cu   0.00001   0.37295   0.49990   1.000
    Cu1     Cu   0.50014   0.00005   0.62702   1.000
    Cu2     Cu   0.49983   0.99994   0.37298   1.000
    Cu3     Cu   0.37258   0.50003   0.99995   1.000
    Cu4     Cu   0.62795   0.99997   0.50015   1.000
    Cu5     Cu   0.37201   0.00002   0.49985   1.000
    Cu6     Cu   0.99992   0.49995   0.37293   1.000
    Cu7     Cu   0.00006   0.50006   0.62709   1.000
    Cu8     Cu   0.50002   0.37300   0.99995   1.000
    Cu9     Cu   0.99998   0.62706   0.50005   1.000
