# CIF file generated by openbabel 2.4.90, see http://openbabel.sf.net
data_I
_chemical_name_common ''
_cell_length_a 6.1945
_cell_length_b 7.7725
_cell_length_c 13.351
_cell_angle_alpha 104.87
_cell_angle_beta 95.281
_cell_angle_gamma 90.019
_space_group_name_H-M_alt 'P 1'
_space_group_name_Hall 'P 1'
loop_
    _symmetry_equiv_pos_as_xyz
    x,y,z
loop_
    _atom_site_label
    _atom_site_type_symbol
    _atom_site_fract_x
    _atom_site_fract_y
    _atom_site_fract_z
    _atom_site_occupancy
    N0      N    0.91873   0.67906   0.52377   1.000
    N1      N    0.20463   0.64766   0.14891   1.000
    N2      N    0.47184   0.28893   0.77847   1.000
    Zr3     Zr   0.58903   0.04127   0.47686   1.000
    O4      O    0.53810   0.12880   0.57223   1.000
    O5      O    0.69260   0.23896   0.49017   1.000
    O6      O    0.57407   0.09906   0.57438   1.000
    O7      O    0.63354   0.92696   0.49173   1.000
    O8      O    0.68789   0.91116   0.48516   1.000
    O9      O    0.72064   0.94549   0.48840   1.000
    O10     O    0.47557   0.92598   0.37281   1.000
    Zr11    Zr   0.79688   0.69393   0.82558   1.000
    O12     O    0.91271   0.68555   0.92877   1.000
    O13     O    0.75389   0.56616   0.81162   1.000
    O14     O    0.66673   0.58727   0.81366   1.000
    O15     O    0.69479   0.87953   0.81211   1.000
    O16     O    0.81334   0.66669   0.72791   1.000
    O17     O    0.84930   0.69831   0.73019   1.000
    O18     O    0.69986   0.55588   0.81691   1.000
loop_
    _geom_bond_atom_site_label_1
    _geom_bond_atom_site_label_2
    _geom_bond_distance
    _geom_bond_site_symmetry_2
    _ccdc_geom_bond_type
    Zr3    O4        1.34648      .   S
    N2     O4        2.78364      .   S
    Zr3    O5        1.62552      .   S
    N0     O5        3.59977      .   S
    Zr3    O6        1.27570      .   S
    N2     O6        2.87366      .   S
    Zr3    O7        0.99273  1_545   S
    N0     O7        2.70231      .   S
    Zr3    O8        1.20645  1_545   S
    N0     O8        2.43062      .   S
    Zr3    O9        1.13082  1_545   S
    N0     O9        2.53257      .   S
    Zr3    O10       1.55170  1_545   S
    N1     O10       3.49104      .   S
    Zr11   O12       1.51040      .   S
    N1     O12       3.38544  1_454   S
    Zr11   O13       0.99380      .   S
    N2     O13       2.69388      .   S
    Zr11   O14       1.12732      .   S
    N2     O14       2.52777      .   S
    Zr11   O15       1.62048      .   S
    N2     O15       3.58567  1_545   S
    Zr11   O16       1.27992      .   S
    N0     O16       2.88550      .   S
    Zr11   O17       1.35157      .   S
    N0     O17       2.79452      .   S
    Zr11   O18       1.20372      .   S
    N2     O18       2.42521      .   S
