# CIF file generated by openbabel 2.4.90, see http://openbabel.sf.net
data_I
_chemical_name_common ''
_cell_length_a 12.119
_cell_length_b 14.542
_cell_length_c 15.229
_cell_angle_alpha 90.002
_cell_angle_beta 90.035
_cell_angle_gamma 90.592
_space_group_name_H-M_alt 'P 1'
_space_group_name_Hall 'P 1'
loop_
    _symmetry_equiv_pos_as_xyz
    x,y,z
loop_
    _atom_site_label
    _atom_site_type_symbol
    _atom_site_fract_x
    _atom_site_fract_y
    _atom_site_fract_z
    _atom_site_occupancy
    Zr0     Zr   0.70291   0.70804   0.96598   1.000
    Zr1     Zr   0.20290   0.70806   0.96598   1.000
    Zr2     Zr   0.55174   0.29197   0.46598   1.000
    Zr3     Zr   0.05172   0.29199   0.46599   1.000
    Zr4     Zr   0.80081   0.20751   0.52699   1.000
    Zr5     Zr   0.30079   0.20751   0.52700   1.000
    Zr6     Zr   0.95389   0.79255   0.02700   1.000
    Zr7     Zr   0.45388   0.79255   0.02701   1.000
    N8      N    0.54199   0.92145   0.65441   1.000
    N9      N    0.79176   0.57684   0.33796   1.000
    N10     N    0.29170   0.57678   0.33795   1.000
    N11     N    0.21267   0.07867   0.15451   1.000
    N12     N    0.04730   0.92144   0.65443   1.000
    N13     N    0.71276   0.07862   0.15451   1.000
    N14     N    0.46314   0.42333   0.83801   1.000
    N15     N    0.96302   0.42328   0.83806   1.000
    C16     C    0.17160   0.15446   0.37890   1.000
    O17     O    0.12759   0.20314   0.39385   1.000
    O18     O    0.18242   0.12352   0.30818   1.000
    O19     O    0.21774   0.15735   0.42771   1.000
    C20     C    0.04819   0.15615   0.56402   1.000
    O21     O    0.96737   0.16333   0.54527   1.000
    O22     O    0.05036   0.08233   0.59904   1.000
    O23     O    0.12952   0.18031   0.55990   1.000
    O24     O    0.06725   0.20143   0.54465   1.000
    C25     C    0.80170   0.34209   0.42848   1.000
    O26     O    0.80135   0.41601   0.39341   1.000
    O27     O    0.88226   0.31858   0.43254   1.000
    O28     O    0.81953   0.29746   0.44778   1.000
    O29     O    0.72042   0.33485   0.44755   1.000
    C30     C    0.30170   0.34205   0.42846   1.000
    O31     O    0.22042   0.33483   0.44754   1.000
    O32     O    0.30133   0.41597   0.39339   1.000
    O33     O    0.38227   0.31854   0.43252   1.000
    O34     O    0.31953   0.29743   0.44777   1.000
    C35     C    0.67163   0.15445   0.37889   1.000
    O36     O    0.68246   0.12349   0.30817   1.000
    O37     O    0.71777   0.15734   0.42770   1.000
    O38     O    0.62761   0.20312   0.39384   1.000
    C39     C    0.42386   0.34574   0.61386   1.000
    O40     O    0.43414   0.37725   0.68444   1.000
    O41     O    0.47009   0.34264   0.56520   1.000
    O42     O    0.37866   0.29689   0.59892   1.000
    C43     C    0.92386   0.34572   0.61388   1.000
    O44     O    0.87867   0.29686   0.59893   1.000
    O45     O    0.93410   0.37721   0.68447   1.000
    O46     O    0.97008   0.34263   0.56522   1.000
    C47     C    0.54821   0.15616   0.56403   1.000
    O48     O    0.46738   0.16334   0.54529   1.000
    O49     O    0.62954   0.18032   0.55991   1.000
    O50     O    0.56727   0.20144   0.54466   1.000
    O51     O    0.54904   0.08234   0.59904   1.000
    C52     C    0.83092   0.65426   0.11384   1.000
    O53     O    0.87609   0.70314   0.09890   1.000
    O54     O    0.82070   0.62280   0.18442   1.000
    O55     O    0.78465   0.65736   0.06519   1.000
    C56     C    0.08294   0.84555   0.87886   1.000
    O57     O    0.03684   0.84267   0.92768   1.000
    O58     O    0.12696   0.79689   0.89383   1.000
    O59     O    0.07347   0.87653   0.80813   1.000
    C60     C    0.70652   0.84390   0.06402   1.000
    O61     O    0.78733   0.83673   0.04528   1.000
    O62     O    0.62519   0.81974   0.05990   1.000
    O63     O    0.68745   0.79862   0.04464   1.000
    O64     O    0.70570   0.91773   0.09906   1.000
    C65     C    0.20651   0.84394   0.06402   1.000
    O66     O    0.20566   0.91777   0.09905   1.000
    O67     O    0.28732   0.83676   0.04529   1.000
    O68     O    0.12518   0.81977   0.05989   1.000
    O69     O    0.18743   0.79865   0.04464   1.000
    C70     C    0.58295   0.84554   0.87886   1.000
    O71     O    0.53685   0.84266   0.92768   1.000
    O72     O    0.57215   0.87652   0.80813   1.000
    O73     O    0.62698   0.79687   0.89382   1.000
    C74     C    0.95289   0.65799   0.92849   1.000
    O75     O    0.95330   0.58408   0.89343   1.000
    O76     O    0.03419   0.66522   0.94757   1.000
    O77     O    0.87233   0.68149   0.93252   1.000
    O78     O    0.93508   0.70262   0.94778   1.000
    C79     C    0.45289   0.65801   0.92848   1.000
    O80     O    0.53419   0.66523   0.94757   1.000
    O81     O    0.37233   0.68151   0.93252   1.000
    O82     O    0.43507   0.70263   0.94778   1.000
    O83     O    0.45334   0.58411   0.89341   1.000
    C84     C    0.33089   0.65426   0.11385   1.000
    O85     O    0.32067   0.62279   0.18442   1.000
    O86     O    0.28463   0.65737   0.06519   1.000
    O87     O    0.37607   0.70314   0.09890   1.000
loop_
    _geom_bond_atom_site_label_1
    _geom_bond_atom_site_label_2
    _geom_bond_distance
    _geom_bond_site_symmetry_2
    _ccdc_geom_bond_type
    C16    O17       0.91939      .   S
    Zr3    O17       1.93579      .   S
    C16    O18       1.17521      .   S
    N11    O18       2.45816      .   S
    C16    O19       0.93057      .   S
    Zr5    O19       1.95307      .   S
    C20    O21       1.02640  1_455   S
    Zr4    O21       2.14273      .   S
    C20    O22       1.19926      .   S
    N12    O22       2.48703  1_565   S
    C20    O23       1.04485      .   S
    Zr5    O23       2.16793      .   S
    C20    O24       0.75553      .   S
    Zr3    O24       1.79149      .   S
    C25    O26       1.20035      .   S
    N9     O26       2.49038      .   S
    C25    O27       1.03962      .   S
    Zr3    O27       2.15448  1_455   S
    C25    O28       0.74650      .   S
    Zr4    O28       1.79213      .   S
    C25    O29       1.03149      .   S
    Zr2    O29       2.14967      .   S
    C30    O31       1.03154      .   S
    Zr3    O31       2.14972      .   S
    C30    O32       1.20028      .   S
    N10    O32       2.49024      .   S
    C30    O33       1.03963      .   S
    Zr2    O33       2.15456      .   S
    C30    O34       0.74643      .   S
    Zr5    O34       1.79208      .   S
    C35    O36       1.17526      .   S
    N13    O36       2.45823      .   S
    C35    O37       0.93054      .   S
    Zr4    O37       1.95299      .   S
    C35    O38       0.91937      .   S
    Zr2    O38       1.93579      .   S
    C39    O40       1.17449      .   S
    N14    O40       2.45677      .   S
    C39    O41       0.93060      .   S
    Zr2    O41       1.95504      .   S
    C39    O42       0.92112      .   S
    Zr5    O42       1.93716      .   S
    C43    O44       0.92110      .   S
    Zr4    O44       1.93709      .   S
    C43    O45       1.17452      .   S
    N15    O45       2.45685      .   S
    C43    O46       0.93053      .   S
    Zr3    O46       1.95491  1_455   S
    C47    O48       1.02652      .   S
    Zr5    O48       2.14290      .   S
    C47    O49       1.04487      .   S
    Zr4    O49       2.16796      .   S
    C47    O50       0.75549      .   S
    Zr2    O50       1.79146      .   S
    C47    O51       1.19883      .   S
    N8     O51       2.48769  1_565   S
    C52    O53       0.92136      .   S
    Zr6    O53       1.93762      .   S
    C52    O54       1.17428      .   S
    N9     O54       2.45631      .   S
    C52    O55       0.93030      .   S
    Zr0    O55       1.95465  1_556   S
    C56    O57       0.93084      .   S
    Zr6    O57       1.95354  1_654   S
    C56    O58       0.91925      .   S
    Zr1    O58       1.93553      .   S
    C56    O59       1.17359      .   S
    N12    O59       2.45153      .   S
    C60    O61       1.02655      .   S
    Zr6    O61       2.14293      .   S
    C60    O62       1.04485      .   S
    Zr7    O62       2.16778      .   S
    C60    O63       0.75564      .   S
    Zr0    O63       1.79175  1_556   S
    C60    O64       1.19899      .   S
    N13    O64       2.48803  1_545   S
    C65    O66       1.19902      .   S
    N11    O66       2.48811  1_545   S
    C65    O67       1.02657      .   S
    Zr7    O67       2.14301      .   S
    C65    O68       1.04486      .   S
    Zr6    O68       2.16768  1_655   S
    C65    O69       0.75570      .   S
    Zr1    O69       1.79180  1_556   S
    C70    O71       0.93091      .   S
    Zr7    O71       1.95372  1_554   S
    C70    O72       1.17541      .   S
    N8     O72       2.45858      .   S
    C70    O73       0.91926      .   S
    Zr0    O73       1.93552      .   S
    C74    O75       1.20006      .   S
    N15    O75       2.48978      .   S
    C74    O76       1.03136  1_655   S
    Zr1    O76       2.14948      .   S
    C74    O77       1.03955      .   S
    Zr0    O77       2.15454      .   S
    C74    O78       0.74635      .   S
    Zr6    O78       1.79199  1_554   S
    C79    O80       1.03139      .   S
    Zr0    O80       2.14942      .   S
    C79    O81       1.03961      .   S
    Zr1    O81       2.15466      .   S
    C79    O82       0.74629      .   S
    Zr7    O82       1.79196  1_554   S
    C79    O83       1.20004      .   S
    N14    O83       2.48972      .   S
    C84    O85       1.17430      .   S
    N10    O85       2.45634      .   S
    C84    O86       0.93029      .   S
    Zr1    O86       1.95461  1_556   S
    C84    O87       0.92138      .   S
    Zr7    O87       1.93768      .   S
