# CIF file generated by openbabel 2.4.90, see http://openbabel.sf.net
data_I
_chemical_name_common ''
_cell_length_a 22.412
_cell_length_b 17.845
_cell_length_c 17.876
_cell_angle_alpha 79.011
_cell_angle_beta 71.829
_cell_angle_gamma 71.745
_space_group_name_H-M_alt 'P 1'
_space_group_name_Hall 'P 1'
loop_
    _symmetry_equiv_pos_as_xyz
    x,y,z
loop_
    _atom_site_label
    _atom_site_type_symbol
    _atom_site_fract_x
    _atom_site_fract_y
    _atom_site_fract_z
    _atom_site_occupancy
    Zn0     Zn   0.82833   0.32100   0.92840   1.000
    Zn1     Zn   0.04678   0.92797   0.32128   1.000
    Zn2     Zn   0.54677   0.92797   0.32127   1.000
    Zn3     Zn   0.42175   0.57195   0.17800   1.000
    Zn4     Zn   0.92174   0.57194   0.17870   1.000
    Zn5     Zn   0.20322   0.17907   0.57159   1.000
    Zn6     Zn   0.70321   0.17907   0.57159   1.000
    Zn7     Zn   0.17163   0.67898   0.07160   1.000
    Zn8     Zn   0.67162   0.67899   0.07160   1.000
    Zn9     Zn   0.45320   0.07200   0.67870   1.000
    Zn10    Zn   0.95319   0.07201   0.67872   1.000
    Zn11    Zn   0.07822   0.42804   0.82131   1.000
    Zn12    Zn   0.57822   0.42803   0.82131   1.000
    Zn13    Zn   0.29676   0.82092   0.42841   1.000
    Zn14    Zn   0.79674   0.82091   0.42841   1.000
    Zn15    Zn   0.37476   0.24999   0.25006   1.000
    Zn16    Zn   0.87474   0.24999   0.25007   1.000
    Zn17    Zn   0.12523   0.74999   0.74993   1.000
    Zn18    Zn   0.62521   0.74998   0.74993   1.000
    Zn19    Zn   0.32835   0.32099   0.92840   1.000
    Ts20    Ts   0.82628   0.30046   0.96534   1.000
    Ts21    Ts   0.84502   0.30122   0.89516   1.000
    Ts22    Ts   0.84878   0.34436   0.92241   1.000
    Ts23    Ts   0.79653   0.33693   0.92888   1.000
    Ts24    Ts   0.04051   0.96494   0.30073   1.000
    Ts25    Ts   0.05668   0.89471   0.30144   1.000
    Ts26    Ts   0.01774   0.92184   0.34458   1.000
    Ts27    Ts   0.07035   0.92858   0.33723   1.000
    Ts28    Ts   0.54051   0.96495   0.30073   1.000
    Ts29    Ts   0.55666   0.89472   0.30143   1.000
    Ts30    Ts   0.51774   0.92184   0.34457   1.000
    Ts31    Ts   0.57034   0.92859   0.33722   1.000
    Ts32    Ts   0.40125   0.57801   0.15495   1.000
    Ts33    Ts   0.42375   0.53497   0.19877   1.000
    Ts34    Ts   0.40508   0.60521   0.19805   1.000
    Ts35    Ts   0.45354   0.57140   0.16222   1.000
    Ts36    Ts   0.90124   0.57800   0.15541   1.000
    Ts37    Ts   0.92373   0.53496   0.19924   1.000
    Ts38    Ts   0.90507   0.60520   0.19852   1.000
    Ts39    Ts   0.95353   0.57139   0.16269   1.000
    Ts40    Ts   0.20937   0.19957   0.53464   1.000
    Ts41    Ts   0.19338   0.19891   0.60479   1.000
    Ts42    Ts   0.23229   0.15565   0.57768   1.000
    Ts43    Ts   0.17961   0.16313   0.57109   1.000
    Ts44    Ts   0.70936   0.19957   0.53464   1.000
    Ts45    Ts   0.69336   0.19891   0.60479   1.000
    Ts46    Ts   0.73228   0.15565   0.57768   1.000
    Ts47    Ts   0.67960   0.16313   0.57109   1.000
    Ts48    Ts   0.20343   0.66305   0.07113   1.000
    Ts49    Ts   0.17368   0.69952   0.03466   1.000
    Ts50    Ts   0.15495   0.69876   0.10484   1.000
    Ts51    Ts   0.15119   0.65562   0.07760   1.000
    Ts52    Ts   0.70342   0.66306   0.07113   1.000
    Ts53    Ts   0.67367   0.69953   0.03466   1.000
    Ts54    Ts   0.65493   0.69877   0.10484   1.000
    Ts55    Ts   0.65118   0.65563   0.07757   1.000
    Ts56    Ts   0.42963   0.07139   0.66276   1.000
    Ts57    Ts   0.45946   0.03503   0.69925   1.000
    Ts58    Ts   0.44330   0.10526   0.69855   1.000
    Ts59    Ts   0.48223   0.07813   0.65541   1.000
    Ts60    Ts   0.92962   0.07140   0.66277   1.000
    Ts61    Ts   0.95946   0.03503   0.69927   1.000
    Ts62    Ts   0.94329   0.10527   0.69856   1.000
    Ts63    Ts   0.98223   0.07814   0.65542   1.000
    Ts64    Ts   0.04643   0.42859   0.83732   1.000
    Ts65    Ts   0.07623   0.46502   0.80077   1.000
    Ts66    Ts   0.09490   0.39478   0.80147   1.000
    Ts67    Ts   0.09873   0.42197   0.84459   1.000
    Ts68    Ts   0.54643   0.42858   0.83732   1.000
    Ts69    Ts   0.57622   0.46501   0.80077   1.000
    Ts70    Ts   0.59488   0.39478   0.80149   1.000
    Ts71    Ts   0.59871   0.42197   0.84460   1.000
    Ts72    Ts   0.32037   0.83686   0.42891   1.000
    Ts73    Ts   0.29061   0.80041   0.46536   1.000
    Ts74    Ts   0.30660   0.80108   0.39521   1.000
    Ts75    Ts   0.26769   0.84433   0.42232   1.000
    Ts76    Ts   0.82036   0.83685   0.42891   1.000
    Ts77    Ts   0.79060   0.80040   0.46536   1.000
    Ts78    Ts   0.80659   0.80107   0.39521   1.000
    Ts79    Ts   0.76768   0.84432   0.42232   1.000
    Ts80    Ts   0.36456   0.24433   0.21960   1.000
    Ts81    Ts   0.40293   0.21944   0.24444   1.000
    Ts82    Ts   0.38487   0.28059   0.25567   1.000
    Ts83    Ts   0.34661   0.25563   0.28057   1.000
    Ts84    Ts   0.86454   0.24432   0.21961   1.000
    Ts85    Ts   0.90291   0.21943   0.24444   1.000
    Ts86    Ts   0.88485   0.28059   0.25567   1.000
    Ts87    Ts   0.84659   0.25563   0.28055   1.000
    Ts88    Ts   0.13543   0.75566   0.78039   1.000
    Ts89    Ts   0.09706   0.78055   0.75556   1.000
    Ts90    Ts   0.11512   0.71939   0.74432   1.000
    Ts91    Ts   0.15338   0.74435   0.71943   1.000
    Ts92    Ts   0.63541   0.75565   0.78039   1.000
    Ts93    Ts   0.59704   0.78054   0.75556   1.000
    Ts94    Ts   0.61511   0.71939   0.74433   1.000
    Ts95    Ts   0.65336   0.74434   0.71943   1.000
    Ts96    Ts   0.32630   0.30046   0.96533   1.000
    Ts97    Ts   0.34504   0.30121   0.89516   1.000
    Ts98    Ts   0.34879   0.34435   0.92240   1.000
    Ts99    Ts   0.29655   0.33692   0.92887   1.000
loop_
    _geom_bond_atom_site_label_1
    _geom_bond_atom_site_label_2
    _geom_bond_distance
    _geom_bond_site_symmetry_2
    _ccdc_geom_bond_type
    Zn0    Ts20      0.68687      .   S
    Zn0    Ts21      0.68998      .   S
    Zn0    Ts22      0.68349      .   S
    Zn0    Ts23      0.67754      .   S
    Zn1    Ts24      0.68682      .   S
    Zn1    Ts25      0.68984      .   S
    Zn1    Ts26      0.68346      .   S
    Zn1    Ts27      0.67774      .   S
    Zn2    Ts28      0.68679      .   S
    Zn2    Ts29      0.68979      .   S
    Zn2    Ts30      0.68335      .   S
    Zn2    Ts31      0.67774      .   S
    Zn3    Ts32      0.68016      .   S
    Zn3    Ts33      0.68835      .   S
    Zn3    Ts34      0.69204      .   S
    Zn3    Ts35      0.67709      .   S
    Zn4    Ts36      0.68345      .   S
    Zn4    Ts37      0.68677      .   S
    Zn4    Ts38      0.68994      .   S
    Zn4    Ts39      0.67761      .   S
    Zn5    Ts40      0.68693      .   S
    Zn5    Ts41      0.68976      .   S
    Zn5    Ts42      0.68347      .   S
    Zn5    Ts43      0.67773      .   S
    Zn6    Ts44      0.68691      .   S
    Zn6    Ts45      0.68978      .   S
    Zn6    Ts46      0.68347      .   S
    Zn6    Ts47      0.67774      .   S
    Zn7    Ts48      0.67752      .   S
    Zn7    Ts49      0.68687      .   S
    Zn7    Ts50      0.69002      .   S
    Zn7    Ts51      0.68349      .   S
    Zn8    Ts52      0.67752      .   S
    Zn8    Ts53      0.68686      .   S
    Zn8    Ts54      0.68998      .   S
    Zn8    Ts55      0.68359      .   S
    Zn9    Ts56      0.67763      .   S
    Zn9    Ts57      0.68684      .   S
    Zn9    Ts58      0.68990      .   S
    Zn9    Ts59      0.68328      .   S
    Zn10   Ts60      0.67774      .   S
    Zn10   Ts61      0.68680      .   S
    Zn10   Ts62      0.68984      .   S
    Zn10   Ts63      0.68345      .   S
    Zn11   Ts64      0.67763      .   S
    Zn11   Ts65      0.68679      .   S
    Zn11   Ts66      0.69011      .   S
    Zn11   Ts67      0.68340      .   S
    Zn12   Ts68      0.67749      .   S
    Zn12   Ts69      0.68678      .   S
    Zn12   Ts70      0.68991      .   S
    Zn12   Ts71      0.68341      .   S
    Zn13   Ts72      0.67772      .   S
    Zn13   Ts73      0.68691      .   S
    Zn13   Ts74      0.68975      .   S
    Zn13   Ts75      0.68350      .   S
    Zn14   Ts76      0.67773      .   S
    Zn14   Ts77      0.68691      .   S
    Zn14   Ts78      0.68973      .   S
    Zn14   Ts79      0.68350      .   S
    Zn15   Ts80      0.68711      .   S
    Zn15   Ts81      0.68676      .   S
    Zn15   Ts82      0.68693      .   S
    Zn15   Ts83      0.68716      .   S
    Zn16   Ts84      0.68715      .   S
    Zn16   Ts85      0.68677      .   S
    Zn16   Ts86      0.68688      .   S
    Zn16   Ts87      0.68687      .   S
    Zn17   Ts88      0.68712      .   S
    Zn17   Ts89      0.68677      .   S
    Zn17   Ts90      0.68698      .   S
    Zn17   Ts91      0.68713      .   S
    Zn18   Ts92      0.68714      .   S
    Zn18   Ts93      0.68679      .   S
    Zn18   Ts94      0.68692      .   S
    Zn18   Ts95      0.68710      .   S
    Zn19   Ts96      0.68677      .   S
    Zn19   Ts97      0.68999      .   S
    Zn19   Ts98      0.68347      .   S
    Zn19   Ts99      0.67754      .   S
