# CIF file generated by openbabel 2.4.90, see http://openbabel.sf.net
data_I
_chemical_name_common ''
_cell_length_a 6.7565
_cell_length_b 7.1535
_cell_length_c 7.1865
_cell_angle_alpha 90.002
_cell_angle_beta 90.007
_cell_angle_gamma 90.001
_space_group_name_H-M_alt 'P 1'
_space_group_name_Hall 'P 1'
loop_
    _symmetry_equiv_pos_as_xyz
    x,y,z
loop_
    _atom_site_label
    _atom_site_type_symbol
    _atom_site_fract_x
    _atom_site_fract_y
    _atom_site_fract_z
    _atom_site_occupancy
    N0      N    0.49997   0.50009   0.49998   1.000
    N1      N    0.00006   0.68761   0.31300   1.000
    N2      N    0.00005   0.31253   0.31295   1.000
    N3      N    0.99990   0.31252   0.68705   1.000
    N4      N    0.99990   0.68761   0.68699   1.000
    Zr5     Zr   0.99999   0.00004   1.00000   1.000
    O6      O    0.99994   0.85817   0.85805   1.000
    O7      O    0.00002   0.14192   0.14192   1.000
    O8      O    0.99994   0.14192   0.85807   1.000
    O9      O    0.00003   0.85817   0.14194   1.000
    Zr10    Zr   0.99993   0.50010   0.49999   1.000
    O11     O    0.99998   0.57041   0.42987   1.000
    O12     O    0.99992   0.42976   0.57014   1.000
    O13     O    0.99998   0.42976   0.42985   1.000
    O14     O    0.16141   0.50010   0.50001   1.000
    O15     O    0.83848   0.50010   0.49997   1.000
    O16     O    0.99992   0.57041   0.57012   1.000
loop_
    _geom_bond_atom_site_label_1
    _geom_bond_atom_site_label_2
    _geom_bond_distance
    _geom_bond_site_symmetry_2
    _ccdc_geom_bond_type
    Zr5    O6        1.43887  1_545   S
    N4     O6        1.73201      .   S
    Zr5    O7        1.43889  1_656   S
    N2     O7        1.73203      .   S
    Zr5    O8        1.43893      .   S
    N3     O8        1.73207      .   S
    Zr5    O9        1.43891  1_646   S
    N1     O9        1.73205      .   S
    Zr10   O11       0.71203      .   S
    N1     O11       1.18672  1_455   S
    Zr10   O12       0.71228      .   S
    N3     O12       1.18713      .   S
    Zr10   O13       0.71222      .   S
    N2     O13       1.18704  1_455   S
    Zr10   O14       1.09105  1_655   S
    N0     O14       2.28748      .   S
    Zr10   O15       1.09084      .   S
    N0     O15       2.28713      .   S
    Zr10   O16       0.71202      .   S
    N4     O16       1.18669      .   S
