# CIF file generated by openbabel 2.4.90, see http://openbabel.sf.net
data_I
_chemical_name_common ''
_cell_length_a 14.019
_cell_length_b 14.615
_cell_length_c 16.671
_cell_angle_alpha 116.044
_cell_angle_beta 88.38
_cell_angle_gamma 90.024
_space_group_name_H-M_alt 'P 1'
_space_group_name_Hall 'P 1'
loop_
    _symmetry_equiv_pos_as_xyz
    x,y,z
loop_
    _atom_site_label
    _atom_site_type_symbol
    _atom_site_fract_x
    _atom_site_fract_y
    _atom_site_fract_z
    _atom_site_occupancy
    Zr0     Zr   0.49051   0.89893   0.37440   1.000
    Zr1     Zr   0.00893   0.52407   0.62545   1.000
    Zr2     Zr   0.50954   0.10105   0.62565   1.000
    Zr3     Zr   0.99118   0.47594   0.37459   1.000
    N4      N    0.61369   0.76875   0.79403   1.000
    O5      O    0.76592   0.64420   0.60407   1.000
    O6      O    0.56853   0.88908   0.68811   1.000
    O7      O    0.77314   0.65743   0.70093   1.000
    O8      O    0.55255   0.80378   0.04381   1.000
    N9      N    0.88563   0.97393   0.20602   1.000
    O10     O    0.73462   0.03868   0.39632   1.000
    O11     O    0.94601   0.79234   0.44765   1.000
    O12     O    0.72669   0.95541   0.29926   1.000
    O13     O    0.94505   0.75938   0.95610   1.000
    O14     O    0.93038   0.20091   0.31188   1.000
    N15     N    0.11414   0.02608   0.79400   1.000
    O16     O    0.05293   0.24063   0.04394   1.000
    O17     O    0.05391   0.20767   0.55238   1.000
    O18     O    0.06956   0.79909   0.68814   1.000
    O19     O    0.26529   0.96133   0.60371   1.000
    O20     O    0.27321   0.04459   0.70078   1.000
    N21     N    0.38641   0.23126   0.20601   1.000
    O22     O    0.44753   0.19622   0.95623   1.000
    O23     O    0.43155   0.11091   0.31194   1.000
    O24     O    0.23418   0.35581   0.39596   1.000
    O25     O    0.22699   0.34259   0.29911   1.000
    O26     O    0.06994   0.78941   0.61011   1.000
    O27     O    0.92999   0.21061   0.38991   1.000
    O28     O    0.43899   0.16696   0.41887   1.000
    O29     O    0.56109   0.83304   0.58117   1.000
loop_
    _geom_bond_atom_site_label_1
    _geom_bond_atom_site_label_2
    _geom_bond_distance
    _geom_bond_site_symmetry_2
    _ccdc_geom_bond_type
    N4     O5        3.52934      .   S
    Zr3    O5        4.66022      .   S
    N4     O6        3.06652      .   S
    Zr2    O6        3.77476  1_545   S
    N4     O7        2.76448      .   S
    Zr1    O7        3.73163  1_455   S
    N4     O8        4.03272  1_556   S
    Zr0    O8        5.10525      .   S
    N9     O10       3.52536  1_565   S
    Zr2    O10       4.65443      .   S
    N9     O11       5.79392      .   S
    Zr1    O11       5.94076  1_455   S
    N9     O12       2.76174      .   S
    Zr0    O12       3.72626      .   S
    N9     O13       4.02728  1_554   S
    Zr1    O13       5.10790  1_455   S
    N9     O14       3.07128  1_565   S
    Zr3    O14       3.78593      .   S
    N15    O16       4.03196  1_556   S
    Zr3    O16       5.10374  1_655   S
    N15    O17       5.79334      .   S
    Zr3    O17       5.94017  1_655   S
    N15    O18       3.07085  1_545   S
    Zr1    O18       3.78540      .   S
    N15    O19       3.52624  1_545   S
    Zr0    O19       4.65551      .   S
    N15    O20       2.76304      .   S
    Zr2    O20       3.72782      .   S
    N21    O22       4.03257  1_554   S
    Zr2    O22       5.10511      .   S
    N21    O23       3.06664      .   S
    Zr0    O23       3.77478  1_565   S
    N21    O24       3.52926      .   S
    Zr1    O24       4.66016      .   S
    N21    O25       2.76425      .   S
    Zr3    O25       3.73175  1_655   S
    N15    O26       3.54130  1_545   S
    Zr3    O26       4.69779  1_655   S
    Zr1    O27       4.69852  1_455   S
    N9     O27       3.54179  1_565   S
    Zr2    O28       4.11073      .   S
    N21    O28       4.13476      .   S
    N4     O29       4.13467      .   S
    Zr0    O29       4.11074      .   S
