# CIF file generated by openbabel 2.4.90, see http://openbabel.sf.net
data_I
_chemical_name_common ''
_cell_length_a 13.063
_cell_length_b 13.036
_cell_length_c 17.836
_cell_angle_alpha 98.267
_cell_angle_beta 98.318
_cell_angle_gamma 118.299
_space_group_name_H-M_alt 'P 1'
_space_group_name_Hall 'P 1'
loop_
    _symmetry_equiv_pos_as_xyz
    x,y,z
loop_
    _atom_site_label
    _atom_site_type_symbol
    _atom_site_fract_x
    _atom_site_fract_y
    _atom_site_fract_z
    _atom_site_occupancy
    N0      N    0.71839   0.02594   0.94918   1.000
    N1      N    0.97412   0.28157   0.55066   1.000
    N2      N    0.28160   0.97408   0.05084   1.000
    N3      N    0.02587   0.71845   0.44935   1.000
    N4      N    0.63101   0.36912   0.75022   1.000
    N5      N    0.54893   0.45165   0.25009   1.000
    N6      N    0.36899   0.63091   0.24979   1.000
    N7      N    0.45106   0.54837   0.74992   1.000
    Zr8     Zr   0.19351   0.33305   0.95888   1.000
    O9      O    0.24238   0.42354   0.04286   1.000
    O10     O    0.05315   0.24011   0.95193   1.000
    O11     O    0.27071   0.39954   0.89908   1.000
    O12     O    0.22540   0.23070   0.98490   1.000
    Zr13    Zr   0.80648   0.66697   0.04114   1.000
    O14     O    0.75760   0.57648   0.95716   1.000
    O15     O    0.72928   0.60048   0.10094   1.000
    O16     O    0.77458   0.76932   0.01512   1.000
    O17     O    0.94683   0.75991   0.04809   1.000
    Zr18    Zr   0.33309   0.19413   0.45908   1.000
    O19     O    0.23071   0.22584   0.48497   1.000
    O20     O    0.42355   0.24291   0.54315   1.000
    O21     O    0.39968   0.27138   0.39929   1.000
    O22     O    0.24014   0.05361   0.45211   1.000
    Zr23    Zr   0.66690   0.80589   0.54095   1.000
    O24     O    0.75985   0.94642   0.54791   1.000
    O25     O    0.57644   0.75711   0.45687   1.000
    O26     O    0.60031   0.72864   0.60074   1.000
    O27     O    0.76928   0.77418   0.51504   1.000
    Zr28    Zr   0.26088   0.73951   0.75009   1.000
    O29     O    0.17417   0.60264   0.69539   1.000
    O30     O    0.39761   0.82613   0.80468   1.000
    O31     O    0.26249   0.80208   0.83896   1.000
    O32     O    0.19816   0.73785   0.66122   1.000
    Zr33    Zr   0.73911   0.26051   0.24994   1.000
    O34     O    0.80183   0.26218   0.33880   1.000
    O35     O    0.73750   0.19794   0.16106   1.000
    O36     O    0.60238   0.17389   0.19533   1.000
    O37     O    0.82582   0.39739   0.30463   1.000
loop_
    _geom_bond_atom_site_label_1
    _geom_bond_atom_site_label_2
    _geom_bond_distance
    _geom_bond_site_symmetry_2
    _ccdc_geom_bond_type
    Zr8    O9        1.59497  1_556   S
    N6     O9        3.84579      .   S
    Zr8    O10       1.62162      .   S
    N0     O10       3.90427  1_655   S
    Zr8    O11       1.62917      .   S
    N7     O11       3.91875      .   S
    Zr8    O12       1.67892      .   S
    N2     O12       4.04012  1_564   S
    Zr13   O14       1.59498  1_554   S
    N4     O14       3.84587      .   S
    Zr13   O15       1.62910      .   S
    N5     O15       3.91867      .   S
    Zr13   O16       1.67891      .   S
    N0     O16       4.04013  1_546   S
    Zr13   O17       1.62163      .   S
    N2     O17       3.90430  1_455   S
    Zr18   O19       1.67951      .   S
    N1     O19       4.04179  1_655   S
    Zr18   O20       1.59681      .   S
    N4     O20       3.84979      .   S
    Zr18   O21       1.62934      .   S
    N5     O21       3.91916      .   S
    Zr18   O22       1.62096      .   S
    N3     O22       3.90245  1_565   S
    Zr23   O24       1.62097      .   S
    N1     O24       3.90252  1_545   S
    Zr23   O25       1.59688      .   S
    N6     O25       3.84994      .   S
    Zr23   O26       1.62928      .   S
    N7     O26       3.91897      .   S
    Zr23   O27       1.67959      .   S
    N3     O27       4.04181  1_455   S
    Zr28   O29       1.63765      .   S
    N1     O29       3.94729  1_655   S
    Zr28   O30       1.63762      .   S
    N0     O30       3.94735  1_545   S
    Zr28   O31       1.66753      .   S
    N2     O31       4.01620  1_554   S
    Zr28   O32       1.66776      .   S
    N3     O32       4.01679      .   S
    Zr33   O34       1.66768      .   S
    N1     O34       4.01660      .   S
    Zr33   O35       1.66761      .   S
    N0     O35       4.01636  1_556   S
    Zr33   O36       1.63770      .   S
    N2     O36       3.94738  1_565   S
    Zr33   O37       1.63756      .   S
    N3     O37       3.94728  1_455   S
