# CIF file generated by openbabel 2.4.90, see http://openbabel.sf.net
data_I
_chemical_name_common ''
_cell_length_a 13.172
_cell_length_b 13.948
_cell_length_c 16.991
_cell_angle_alpha 90.05
_cell_angle_beta 90.016
_cell_angle_gamma 90.246
_space_group_name_H-M_alt 'P 1'
_space_group_name_Hall 'P 1'
loop_
    _symmetry_equiv_pos_as_xyz
    x,y,z
loop_
    _atom_site_label
    _atom_site_type_symbol
    _atom_site_fract_x
    _atom_site_fract_y
    _atom_site_fract_z
    _atom_site_occupancy
    Zr0     Zr   0.42612   0.97961   0.40648   1.000
    Zr1     Zr   0.47619   0.90842   0.07322   1.000
    Zr2     Zr   0.57406   0.52009   0.90666   1.000
    Zr3     Zr   0.52398   0.59159   0.57310   1.000
    Zr4     Zr   0.92518   0.02009   0.09364   1.000
    Zr5     Zr   0.97779   0.09148   0.42671   1.000
    Zr6     Zr   0.07504   0.48014   0.59354   1.000
    Zr7     Zr   0.02236   0.40845   0.92681   1.000
    Zr8     Zr   0.57391   0.02037   0.59351   1.000
    Zr9     Zr   0.52384   0.09156   0.92677   1.000
    Zr10    Zr   0.42596   0.47989   0.09333   1.000
    Zr11    Zr   0.47604   0.40839   0.42689   1.000
    Zr12    Zr   0.07485   0.97989   0.90635   1.000
    Zr13    Zr   0.02223   0.90850   0.57328   1.000
    Zr14    Zr   0.92499   0.51984   0.40645   1.000
    Zr15    Zr   0.97767   0.59153   0.07318   1.000
    C16     C    0.05469   0.96426   0.73241   1.000
    C17     C    0.55571   0.03583   0.76778   1.000
    C18     C    0.05653   0.46562   0.76793   1.000
    C19     C    0.94534   0.03572   0.26758   1.000
    C20     C    0.44241   0.46615   0.26800   1.000
    C21     C    0.55761   0.53383   0.73180   1.000
    C22     C    0.94350   0.53436   0.23206   1.000
    C23     C    0.44432   0.96415   0.23220   1.000
    C24     C    0.20501   0.51912   0.08077   1.000
    O25     O    0.12529   0.53986   0.07215   1.000
    O26     O    0.14037   0.47386   0.02398   1.000
    O27     O    0.27727   0.49969   0.08165   1.000
    C28     C    0.41157   0.03659   0.21444   1.000
    O29     O    0.42237   0.01264   0.22035   1.000
    O30     O    0.42929   0.00278   0.16225   1.000
    C31     C    0.48401   0.28459   0.00103   1.000
    O32     O    0.46752   0.35631   0.02794   1.000
    O33     O    0.49886   0.22412   0.97116   1.000
    O34     O    0.51430   0.37086   0.96253   1.000
    C35     C    0.51667   0.21512   0.50075   1.000
    O36     O    0.53293   0.14356   0.52773   1.000
    O37     O    0.50168   0.27569   0.47099   1.000
    O38     O    0.48612   0.12888   0.46225   1.000
    C39     C    0.70443   0.98119   0.08137   1.000
    O40     O    0.62446   0.96035   0.07258   1.000
    O41     O    0.64043   0.02649   0.02455   1.000
    O42     O    0.77669   0.00059   0.08225   1.000
    C43     C    0.29581   0.51906   0.58112   1.000
    O44     O    0.37578   0.53974   0.57241   1.000
    O45     O    0.22351   0.49972   0.58199   1.000
    O46     O    0.35965   0.47368   0.52434   1.000
    C47     C    0.98401   0.71500   0.49930   1.000
    O48     O    0.96732   0.64330   0.47223   1.000
    O49     O    0.01465   0.62895   0.53773   1.000
    O50     O    0.99834   0.77563   0.52912   1.000
    C51     C    0.70421   0.48093   0.41885   1.000
    O52     O    0.62424   0.46024   0.42757   1.000
    O53     O    0.64037   0.52630   0.47562   1.000
    O54     O    0.77651   0.50026   0.41798   1.000
    C55     C    0.01600   0.28498   0.50069   1.000
    O56     O    0.98536   0.37103   0.46226   1.000
    O57     O    0.03269   0.35668   0.52776   1.000
    O58     O    0.00168   0.22435   0.47087   1.000
    C59     C    0.51601   0.71539   0.99895   1.000
    O60     O    0.50116   0.77586   0.02882   1.000
    O61     O    0.53250   0.64367   0.97205   1.000
    O62     O    0.48572   0.62912   0.03746   1.000
    C63     C    0.01979   0.88974   0.75039   1.000
    O64     O    0.03153   0.91473   0.74438   1.000
    O65     O    0.03439   0.91371   0.80601   1.000
    O66     O    0.01655   0.88663   0.69100   1.000
    C67     C    0.98363   0.21477   0.00064   1.000
    O68     O    0.99806   0.27548   0.97087   1.000
    O69     O    0.01444   0.12876   0.96218   1.000
    O70     O    0.96708   0.14321   0.02768   1.000
    C71     C    0.02341   0.39017   0.75008   1.000
    O72     O    0.03455   0.41549   0.75606   1.000
    O73     O    0.01941   0.38694   0.80936   1.000
    O74     O    0.03719   0.41400   0.69432   1.000
    C75     C    0.47843   0.88958   0.25019   1.000
    O76     O    0.46695   0.91459   0.24417   1.000
    O77     O    0.46455   0.91353   0.30589   1.000
    O78     O    0.48161   0.88649   0.19084   1.000
    C79     C    0.79484   0.98122   0.58089   1.000
    O80     O    0.85961   0.02637   0.52410   1.000
    O81     O    0.87456   0.96032   0.57223   1.000
    O82     O    0.72261   0.00068   0.58182   1.000
    C83     C    0.79501   0.48086   0.91922   1.000
    O84     O    0.72275   0.50029   0.91834   1.000
    O85     O    0.87474   0.46012   0.92784   1.000
    O86     O    0.85966   0.52611   0.97601   1.000
    C87     C    0.01638   0.78521   0.99935   1.000
    O88     O    0.03294   0.85677   0.97231   1.000
    O89     O    0.00196   0.72450   0.02912   1.000
    O90     O    0.98558   0.87122   0.03781   1.000
    C91     C    0.48334   0.78486   0.49923   1.000
    O92     O    0.49834   0.72429   0.52900   1.000
    O93     O    0.51390   0.87110   0.53772   1.000
    O94     O    0.46709   0.85642   0.47226   1.000
    C95     C    0.29559   0.01879   0.91862   1.000
    O96     O    0.37556   0.03963   0.92741   1.000
    O97     O    0.22333   0.99940   0.91774   1.000
    O98     O    0.35960   0.97349   0.97544   1.000
    C99     C    0.41165   0.53951   0.28577   1.000
    O100    O    0.42179   0.51527   0.27988   1.000
    O101    O    0.42942   0.50504   0.33793   1.000
    C102    C    0.08833   0.53880   0.78546   1.000
    O103    O    0.07785   0.51461   0.77964   1.000
    O104    O    0.06976   0.50474   0.83767   1.000
    C105    C    0.52555   0.60954   0.74966   1.000
    O106    O    0.53854   0.58587   0.80552   1.000
    O107    O    0.53634   0.58412   0.74368   1.000
    O108    O    0.52151   0.61285   0.69043   1.000
    C109    C    0.58846   0.96338   0.78555   1.000
    O110    O    0.57766   0.98733   0.77964   1.000
    O111    O    0.57074   0.99720   0.83774   1.000
    C112    C    0.91169   0.46118   0.21453   1.000
    O113    O    0.92218   0.48537   0.22035   1.000
    O114    O    0.93026   0.49524   0.16232   1.000
    C115    C    0.20519   0.01876   0.41909   1.000
    O116    O    0.27742   0.99930   0.41817   1.000
    O117    O    0.12547   0.03966   0.42776   1.000
    O118    O    0.14042   0.97361   0.47589   1.000
    C119    C    0.98023   0.11024   0.24960   1.000
    O120    O    0.96850   0.08525   0.25561   1.000
    O121    O    0.98347   0.11335   0.30899   1.000
    O122    O    0.96563   0.08627   0.19398   1.000
    C123    C    0.91182   0.96331   0.28534   1.000
    O124    O    0.92286   0.98725   0.27944   1.000
    O125    O    0.93023   0.99702   0.33755   1.000
    C126    C    0.08821   0.03667   0.71461   1.000
    O127    O    0.07716   0.01273   0.72054   1.000
    O128    O    0.06980   0.00296   0.66241   1.000
    C129    C    0.58838   0.46047   0.71419   1.000
    O130    O    0.57823   0.48471   0.72005   1.000
    O131    O    0.57061   0.49493   0.66204   1.000
    C132    C    0.52160   0.11039   0.74979   1.000
    O133    O    0.53308   0.08538   0.75582   1.000
    O134    O    0.51841   0.11349   0.80914   1.000
    O135    O    0.53547   0.08645   0.69410   1.000
    C136    C    0.47448   0.39044   0.25020   1.000
    O137    O    0.46368   0.41586   0.25610   1.000
    O138    O    0.46148   0.41411   0.19441   1.000
    O139    O    0.47852   0.38713   0.30950   1.000
    C140    C    0.97662   0.60981   0.24978   1.000
    O141    O    0.98062   0.61304   0.19056   1.000
    O142    O    0.96283   0.58599   0.30550   1.000
    O143    O    0.96548   0.58449   0.24387   1.000
loop_
    _geom_bond_atom_site_label_1
    _geom_bond_atom_site_label_2
    _geom_bond_distance
    _geom_bond_site_symmetry_2
    _ccdc_geom_bond_type
    C24    O25       1.10023      .   S
    Zr15   O25       2.07668  1_655   S
    C24    O26       1.43126      .   S
    Zr7    O26       2.44091  1_556   S
    C24    O27       0.99088      .   S
    Zr10   O27       1.98898      .   S
    C28    O29       0.37732      .   S
    C23    O29       0.76394  1_565   S
    C28    O30       1.03135      .   S
    Zr1    O30       2.09907  1_565   S
    C31    O32       1.12166      .   S
    Zr10   O32       2.12381      .   S
    C31    O33       1.00395  1_554   S
    Zr9    O33       2.02446      .   S
    C31    O34       1.42564  1_554   S
    Zr2    O34       2.41722      .   S
    C35    O36       1.12016      .   S
    Zr8    O36       2.12225      .   S
    C35    O37       1.00525      .   S
    Zr11   O37       2.02713      .   S
    C35    O38       1.42518      .   S
    Zr0    O38       2.41652  1_565   S
    C39    O40       1.10162      .   S
    Zr1    O40       2.08018      .   S
    C39    O41       1.43075  1_565   S
    Zr9    O41       2.44038  1_556   S
    C39    O42       0.98853  1_565   S
    Zr4    O42       1.98291      .   S
    C43    O44       1.10102      .   S
    Zr3    O44       2.07884      .   S
    C43    O45       0.98887      .   S
    Zr6    O45       1.98325      .   S
    C43    O46       1.42912      .   S
    Zr11   O46       2.43559      .   S
    C47    O48       1.12127      .   S
    Zr14   O48       2.12456      .   S
    C47    O49       1.42655  1_655   S
    Zr6    O49       2.42017      .   S
    C47    O50       1.00263      .   S
    Zr13   O50       2.02221  1_455   S
    C51    O52       1.10104      .   S
    Zr11   O52       2.07881      .   S
    C51    O53       1.42905      .   S
    Zr3    O53       2.43584      .   S
    C51    O54       0.98888      .   S
    Zr14   O54       1.98326      .   S
    C55    O56       1.42653  1_455   S
    Zr14   O56       2.42014      .   S
    C55    O57       1.12127      .   S
    Zr6    O57       2.12462      .   S
    C55    O58       1.00262      .   S
    Zr5    O58       2.02219  1_655   S
    C59    O60       1.00392  1_556   S
    Zr1    O60       2.02452      .   S
    C59    O61       1.12164      .   S
    Zr2    O61       2.12379      .   S
    C59    O62       1.42567  1_556   S
    Zr10   O62       2.41724      .   S
    C63    O64       0.39434      .   S
    C16    O64       0.78107      .   S
    C63    O65       1.02017      .   S
    Zr12   O65       2.00871      .   S
    C63    O66       1.01087      .   S
    Zr13   O66       2.02493      .   S
    C67    O68       1.00416  1_554   S
    Zr7    O68       2.02486  1_455   S
    C67    O69       1.42617  1_654   S
    Zr12   O69       2.41987  1_565   S
    C67    O70       1.11974      .   S
    Zr4    O70       2.12259      .   S
    C71    O72       0.39511      .   S
    C18    O72       0.78191      .   S
    C71    O73       1.00976      .   S
    Zr7    O73       2.01804      .   S
    C71    O74       1.02027      .   S
    Zr6    O74       2.00783      .   S
    C75    O76       0.39435      .   S
    C23    O76       0.78096      .   S
    C75    O77       1.02015      .   S
    Zr0    O77       2.00718      .   S
    C75    O78       1.01017      .   S
    Zr1    O78       2.02328      .   S
    C79    O80       1.43262  1_565   S
    Zr5    O80       2.44504      .   S
    C79    O81       1.10082      .   S
    Zr13   O81       2.07814  1_455   S
    C79    O82       0.99060  1_565   S
    Zr8    O82       1.98900      .   S
    C83    O84       0.99087      .   S
    Zr2    O84       1.98897      .   S
    C83    O85       1.10023      .   S
    Zr7    O85       2.07668  1_455   S
    C83    O86       1.43127      .   S
    Zr15   O86       2.44093  1_554   S
    C87    O88       1.11971      .   S
    Zr12   O88       2.12257      .   S
    C87    O89       1.00419  1_556   S
    Zr15   O89       2.02489  1_655   S
    C87    O90       1.42620  1_456   S
    Zr4    O90       2.41988  1_545   S
    C91    O92       1.00533      .   S
    Zr3    O92       2.02717      .   S
    C91    O93       1.42512      .   S
    Zr8    O93       2.41668  1_545   S
    C91    O94       1.12010      .   S
    Zr0    O94       2.12217      .   S
    C95    O96       1.10164      .   S
    Zr9    O96       2.08019      .   S
    C95    O97       0.98853  1_545   S
    Zr12   O97       1.98290      .   S
    C95    O98       1.43079  1_545   S
    Zr1    O98       2.44044  1_554   S
    C99    O100      0.37753      .   S
    C20    O100      0.76500      .   S
    C99    O101      1.03591      .   S
    Zr11   O101      2.11877      .   S
    C102   O103      0.37710      .   S
    C18    O103      0.76390      .   S
    C102   O104      1.03555      .   S
    Zr7    O104      2.11771      .   S
    C105   O106      1.01983      .   S
    Zr2    O106      2.00497      .   S
    C105   O107      0.39576      .   S
    C21    O107      0.78280      .   S
    C105   O108      1.00896      .   S
    Zr3    O108      2.01544      .   S
    C109   O110      0.37732      .   S
    C17    O110      0.76393  1_545   S
    C109   O111      1.03136      .   S
    Zr9    O111      2.09906  1_545   S
    C112   O113      0.37710      .   S
    C22    O113      0.76390      .   S
    C112   O114      1.03555      .   S
    Zr15   O114      2.11770      .   S
    C115   O116      0.99060  1_545   S
    Zr0    O116      1.98900      .   S
    C115   O117      1.10082      .   S
    Zr5    O117      2.07813  1_655   S
    C115   O118      1.43264  1_545   S
    Zr13   O118      2.44507      .   S
    C119   O120      0.39434      .   S
    C19    O120      0.78107      .   S
    C119   O121      1.01087      .   S
    Zr5    O121      2.02494      .   S
    C119   O122      1.02018      .   S
    Zr4    O122      2.00871      .   S
    C123   O124      0.37736      .   S
    C19    O124      0.76410  1_545   S
    C123   O125      1.03193      .   S
    Zr5    O125      2.10055  1_545   S
    C126   O127      0.37744      .   S
    C16    O127      0.76417  1_565   S
    C126   O128      1.03190      .   S
    Zr13   O128      2.10018  1_565   S
    C129   O130      0.37738      .   S
    C21    O130      0.76442      .   S
    C129   O131      1.03569      .   S
    Zr3    O131      2.11860      .   S
    C132   O133      0.39437      .   S
    C17    O133      0.78098      .   S
    C132   O134      1.01013      .   S
    Zr9    O134      2.02349      .   S
    C132   O135      1.02007      .   S
    Zr8    O135      2.00710      .   S
    C136   O137      0.39541      .   S
    C20    O137      0.78287      .   S
    C136   O138      1.01880      .   S
    Zr10   O138      2.00403      .   S
    C136   O139      1.01006      .   S
    Zr11   O139      2.01654      .   S
    C140   O141      1.00866      .   S
    Zr15   O141      2.01695      .   S
    C140   O142      1.01976      .   S
    Zr14   O142      2.01020      .   S
    C140   O143      0.39482      .   S
    C22    O143      0.78162      .   S
