# CIF file generated by openbabel 2.4.90, see http://openbabel.sf.net
data_I
_chemical_name_common ''
_cell_length_a 22.218
_cell_length_b 14.321
_cell_length_c 18.373
_cell_angle_alpha 74.409
_cell_angle_beta 72.493
_cell_angle_gamma 67.103
_space_group_name_H-M_alt 'P 1'
_space_group_name_Hall 'P 1'
loop_
    _symmetry_equiv_pos_as_xyz
    x,y,z
loop_
    _atom_site_label
    _atom_site_type_symbol
    _atom_site_fract_x
    _atom_site_fract_y
    _atom_site_fract_z
    _atom_site_occupancy
    S0      S    0.02905   0.63425   0.70595   1.000
    S1      S    0.52906   0.63425   0.70595   1.000
    S2      S    0.10756   0.85051   0.66510   1.000
    S3      S    0.60757   0.85050   0.66510   1.000
    S4      S    0.43679   0.85341   0.80371   1.000
    S5      S    0.19909   0.86614   0.79359   1.000
    S6      S    0.69910   0.86613   0.79360   1.000
    S7      S    0.36573   0.65009   0.83441   1.000
    S8      S    0.86575   0.65007   0.83442   1.000
    S9      S    0.26536   0.64714   0.69572   1.000
    S10     S    0.76536   0.64713   0.69573   1.000
    S11     S    0.11180   0.67858   0.85011   1.000
    S12     S    0.61180   0.67858   0.85011   1.000
    S13     S    0.93680   0.85340   0.80371   1.000
    S14     S    0.37588   0.82181   0.64932   1.000
    S15     S    0.87588   0.82180   0.64932   1.000
    S16     S    0.30090   0.13390   0.20637   1.000
    S17     S    0.80091   0.13389   0.20637   1.000
    S18     S    0.13425   0.34997   0.16555   1.000
    S19     S    0.63427   0.34995   0.16555   1.000
    S20     S    0.23464   0.35290   0.30425   1.000
    S21     S    0.73464   0.35289   0.30425   1.000
    S22     S    0.38820   0.32145   0.14986   1.000
    S23     S    0.88820   0.32145   0.14986   1.000
    S24     S    0.47094   0.36577   0.29402   1.000
    S25     S    0.97094   0.36578   0.29402   1.000
    S26     S    0.39243   0.14952   0.33486   1.000
    S27     S    0.89244   0.14952   0.33487   1.000
    S28     S    0.06321   0.14663   0.19626   1.000
    S29     S    0.56321   0.14662   0.19626   1.000
    S30     S    0.12412   0.17824   0.35064   1.000
    S31     S    0.62413   0.17823   0.35064   1.000
