# CIF file generated by openbabel 2.4.90, see http://openbabel.sf.net
data_I
_chemical_name_common ''
_cell_length_a 8.75
_cell_length_b 12.597
_cell_length_c 12.598
_cell_angle_alpha 114.647
_cell_angle_beta 103.32
_cell_angle_gamma 103.37
_space_group_name_H-M_alt 'P 1'
_space_group_name_Hall 'P 1'
loop_
    _symmetry_equiv_pos_as_xyz
    x,y,z
loop_
    _atom_site_label
    _atom_site_type_symbol
    _atom_site_fract_x
    _atom_site_fract_y
    _atom_site_fract_z
    _atom_site_occupancy
    N0      N    0.82446   0.29758   0.92710   1.000
    N1      N    0.52604   0.62853   0.70184   1.000
    N2      N    0.89861   0.07386   0.37139   1.000
    N3      N    0.17555   0.70243   0.07287   1.000
    N4      N    0.47397   0.37148   0.29813   1.000
    N5      N    0.10141   0.92615   0.62859   1.000
    Zr6     Zr   0.58699   0.19684   0.57411   1.000
    O7      O    0.57531   0.25104   0.49207   1.000
    O8      O    0.57633   0.33242   0.62577   1.000
    O9      O    0.68451   0.23084   0.67643   1.000
    Zr10    Zr   0.38929   0.37600   0.80319   1.000
    O11     O    0.32350   0.24003   0.74915   1.000
    O12     O    0.45277   0.44440   0.76895   1.000
    O13     O    0.24370   0.29265   0.66757   1.000
    O14     O    0.21627   0.34402   0.83483   1.000
    O15     O    0.51902   0.36051   0.85951   1.000
    Zr16    Zr   0.98713   0.57397   0.37649   1.000
    O17     O    0.12839   0.51038   0.34463   1.000
    O18     O    0.84201   0.50203   0.36092   1.000
    O19     O    0.99156   0.67609   0.44472   1.000
    O20     O    0.04932   0.62592   0.29268   1.000
    O21     O    0.91701   0.49190   0.24063   1.000
    Zr22    Zr   0.41302   0.80317   0.42586   1.000
    O23     O    0.42368   0.66759   0.37420   1.000
    O24     O    0.42470   0.74896   0.50790   1.000
    O25     O    0.31551   0.76917   0.32354   1.000
    Zr26    Zr   0.61072   0.62400   0.19678   1.000
    O27     O    0.54724   0.55561   0.23103   1.000
    O28     O    0.67652   0.75997   0.25082   1.000
    O29     O    0.75631   0.70735   0.33240   1.000
    O30     O    0.48100   0.63949   0.14047   1.000
    O31     O    0.78374   0.65598   0.16514   1.000
    Zr32    Zr   0.01289   0.42603   0.62348   1.000
    O33     O    0.15801   0.49798   0.63905   1.000
    O34     O    0.87163   0.48963   0.65534   1.000
    O35     O    0.00845   0.32391   0.55525   1.000
    O36     O    0.08301   0.50810   0.75935   1.000
    O37     O    0.95070   0.37408   0.70729   1.000
    O38     O    0.44759   0.11661   0.59823   1.000
    O39     O    0.64651   0.15314   0.50630   1.000
    O40     O    0.33043   0.48066   0.88307   1.000
    O41     O    0.15021   0.59808   0.48087   1.000
    O42     O    0.35350   0.84686   0.49367   1.000
    O43     O    0.55242   0.88339   0.40174   1.000
    O44     O    0.66958   0.51934   0.11690   1.000
    O45     O    0.84980   0.40192   0.51910   1.000
loop_
    _geom_bond_atom_site_label_1
    _geom_bond_atom_site_label_2
    _geom_bond_distance
    _geom_bond_site_symmetry_2
    _ccdc_geom_bond_type
    Zr6    O7        1.45503      .   S
    N4     O7        3.43113      .   S
    Zr6    O8        1.58865      .   S
    N1     O8        3.60520      .   S
    Zr6    O9        1.19871      .   S
    N0     O9        2.77602      .   S
    Zr10   O11       1.45588      .   S
    N5     O11       3.43434  1_565   S
    Zr10   O12       1.19832      .   S
    N1     O12       2.77550      .   S
    Zr10   O13       1.58955      .   S
    N2     O13       3.60820  1_655   S
    Zr10   O14       1.65625      .   S
    N0     O14       3.86296  1_655   S
    Zr10   O15       1.29493      .   S
    N0     O15       2.99845      .   S
    Zr16   O17       1.65802  1_655   S
    N4     O17       3.86738      .   S
    Zr16   O18       1.29497      .   S
    N4     O18       2.99877      .   S
    Zr16   O19       1.19763      .   S
    N5     O19       2.77490  1_455   S
    Zr16   O20       1.58603  1_655   S
    N3     O20       3.60001      .   S
    Zr16   O21       1.45666      .   S
    N0     O21       3.43430  1_556   S
    Zr22   O23       1.58865      .   S
    N4     O23       3.60521      .   S
    Zr22   O24       1.45504      .   S
    N1     O24       3.43113      .   S
    Zr22   O25       1.19870      .   S
    N3     O25       2.77602      .   S
    Zr26   O27       1.19831      .   S
    N4     O27       2.77548      .   S
    Zr26   O28       1.45589      .   S
    N2     O28       3.43434  1_545   S
    Zr26   O29       1.58954      .   S
    N5     O29       3.60820  1_455   S
    Zr26   O30       1.29493      .   S
    N3     O30       2.99845      .   S
    Zr26   O31       1.65626      .   S
    N3     O31       3.86298  1_455   S
    Zr32   O33       1.29496      .   S
    N1     O33       2.99875      .   S
    Zr32   O34       1.65804  1_455   S
    N1     O34       3.86741      .   S
    Zr32   O35       1.19762      .   S
    N2     O35       2.77489  1_655   S
    Zr32   O36       1.45666      .   S
    N3     O36       3.43430  1_554   S
    Zr32   O37       1.58603  1_455   S
    N0     O37       3.60002      .   S
    Zr6    O38       1.56786      .   S
    N5     O38       3.60781  1_565   S
    Zr6    O39       1.11775      .   S
    N2     O39       3.17532      .   S
    Zr10   O40       1.56921      .   S
    N3     O40       3.60980  1_554   S
    Zr16   O41       1.56827  1_655   S
    N1     O41       3.60817      .   S
    N5     O42       3.17532      .   S
    Zr22   O42       1.11776      .   S
    N2     O43       3.60781  1_545   S
    Zr22   O43       1.56786      .   S
    Zr26   O44       1.56922      .   S
    N0     O44       3.60981  1_556   S
    Zr32   O45       1.56829  1_455   S
    N4     O45       3.60819      .   S
