# CIF file generated by openbabel 2.4.90, see http://openbabel.sf.net
data_I
_chemical_name_common ''
_cell_length_a 11.092
_cell_length_b 16.183
_cell_length_c 17.987
_cell_angle_alpha 90.004
_cell_angle_beta 91.265
_cell_angle_gamma 90
_space_group_name_H-M_alt 'P 1'
_space_group_name_Hall 'P 1'
loop_
    _symmetry_equiv_pos_as_xyz
    x,y,z
loop_
    _atom_site_label
    _atom_site_type_symbol
    _atom_site_fract_x
    _atom_site_fract_y
    _atom_site_fract_z
    _atom_site_occupancy
    Zr0     Zr   0.99507   1.00000   0.92404   1.000
    Zr1     Zr   0.00494   0.00000   0.07595   1.000
    Zr2     Zr   0.83906   0.88050   0.99976   1.000
    Zr3     Zr   0.16093   0.88049   0.00000   1.000
    Zr4     Zr   0.16093   0.11953   0.00000   1.000
    Zr5     Zr   0.83906   0.11952   0.99977   1.000
    Zr6     Zr   0.86552   0.90983   0.93639   1.000
    Zr7     Zr   0.87461   0.90925   0.06252   1.000
    Zr8     Zr   0.13447   0.90985   0.06357   1.000
    Zr9     Zr   0.12542   0.90924   0.93744   1.000
    Zr10    Zr   0.13448   0.09018   0.06357   1.000
    Zr11    Zr   0.12542   0.09077   0.93744   1.000
    Zr12    Zr   0.86552   0.09018   0.93639   1.000
    Zr13    Zr   0.87462   0.09077   0.06252   1.000
    O14     O    0.14770   0.89517   0.03179   1.000
    O15     O    0.14317   0.89486   0.96872   1.000
    O16     O    0.14770   0.10485   0.03179   1.000
    O17     O    0.14317   0.10515   0.96872   1.000
    O18     O    0.93978   0.95463   0.06924   1.000
    O19     O    0.85684   0.89488   0.03114   1.000
    O20     O    0.93978   0.04539   0.06924   1.000
    O21     O    0.85684   0.10514   0.03115   1.000
    O22     O    0.06970   0.95492   0.06976   1.000
    O23     O    0.06971   0.04509   0.06976   1.000
    O24     O    0.93030   0.95491   0.93022   1.000
    O25     O    0.93030   0.04509   0.93022   1.000
    O26     O    0.06024   0.95462   0.93074   1.000
    O27     O    0.06025   0.04538   0.93074   1.000
    O28     O    0.85229   0.89517   0.96808   1.000
    O29     O    0.85229   0.10485   0.96808   1.000
    O30     O    0.00000   1.00000   0.00000   1.000
    N31     N    0.50001   0.50001   0.99994   1.000
    O32     O    0.34967   0.67119   0.99989   1.000
    O33     O    0.65034   0.67120   0.99999   1.000
    O34     O    0.34967   0.32883   0.99989   1.000
    O35     O    0.65034   0.32882   0.99999   1.000
    N36     N    0.00001   0.99999   0.50000   1.000
    O37     O    0.99764   0.99999   0.68318   1.000
    O38     O    0.00237   0.99999   0.31682   1.000
loop_
    _geom_bond_atom_site_label_1
    _geom_bond_atom_site_label_2
    _geom_bond_distance
    _geom_bond_site_symmetry_2
    _ccdc_geom_bond_type
    Zr3    O14       0.63915      .   S
    Zr8    O14       0.63915      .   S
    Zr3    O15       0.63605  1_554   S
    Zr9    O15       0.63605      .   S
    Zr4    O16       0.63916      .   S
    Zr10   O16       0.63916      .   S
    Zr4    O17       0.63603  1_554   S
    Zr11   O17       0.63603      .   S
    Zr7    O18       1.03552      .   S
    Zr1    O18       1.03552  1_445   S
    Zr7    O19       0.63767      .   S
    Zr2    O19       0.63767  1_556   S
    Zr13   O20       1.03563      .   S
    Zr1    O20       1.03563  1_455   S
    Zr13   O21       0.63767      .   S
    Zr5    O21       0.63767  1_556   S
    Zr8    O22       1.03161      .   S
    Zr1    O22       1.03161  1_545   S
    Zr10   O23       1.03174      .   S
    Zr1    O23       1.03174      .   S
    Zr0    O24       1.03167      .   S
    Zr6    O24       1.03167      .   S
    Zr0    O25       1.03175  1_565   S
    Zr12   O25       1.03175      .   S
    Zr0    O26       1.03564  1_655   S
    Zr9    O26       1.03564      .   S
    Zr0    O27       1.03573  1_665   S
    Zr11   O27       1.03573      .   S
    Zr6    O28       0.63748      .   S
    Zr2    O28       0.63748      .   S
    Zr12   O29       0.63751      .   S
    Zr5    O29       0.63751      .   S
    Zr0    O30       1.36611  1_656   S
    Zr1    O30       1.36607  1_545   S
    N31    O32       3.23342      .   S
    Zr3    O32       3.98184  1_554   S
    N31    O33       3.23342      .   S
    Zr2    O33       3.98190      .   S
    N31    O34       3.23342      .   S
    Zr4    O34       3.98188  1_554   S
    N31    O35       3.23340      .   S
    Zr5    O35       3.98189      .   S
    N36    O37       3.29548  1_455   S
    Zr0    O37       4.33321      .   S
    N36    O38       3.29549      .   S
    Zr1    O38       4.33323  1_545   S
