# CIF file generated by openbabel 2.4.90, see http://openbabel.sf.net
data_I
_chemical_name_common ''
_cell_length_a 13.128
_cell_length_b 13.969
_cell_length_c 16.99
_cell_angle_alpha 90
_cell_angle_beta 90.046
_cell_angle_gamma 90.119
_space_group_name_H-M_alt 'P 1'
_space_group_name_Hall 'P 1'
loop_
    _symmetry_equiv_pos_as_xyz
    x,y,z
loop_
    _atom_site_label
    _atom_site_type_symbol
    _atom_site_fract_x
    _atom_site_fract_y
    _atom_site_fract_z
    _atom_site_occupancy
    N0      N    0.01687   0.78491   0.99941   1.000
    N1      N    0.20546   0.51875   0.08157   1.000
    N2      N    0.70544   0.98035   0.08208   1.000
    N3      N    0.48467   0.28467   0.00080   1.000
    N4      N    0.05214   0.96511   0.73248   1.000
    N5      N    0.94518   0.53465   0.23227   1.000
    N6      N    0.98349   0.71533   0.49931   1.000
    N7      N    0.29454   0.51978   0.58194   1.000
    N8      N    0.01686   0.28569   0.50324   1.000
    N9      N    0.51514   0.21538   0.50093   1.000
    N10     N    0.20520   0.01856   0.41959   1.000
    N11     N    0.79470   0.48152   0.91945   1.000
    N12     N    0.48450   0.78472   0.49918   1.000
    N13     N    0.44512   0.46308   0.26783   1.000
    N14     N    0.79429   0.98144   0.58132   1.000
    N15     N    0.29448   0.01943   0.91872   1.000
    N16     N    0.98296   0.21445   0.00320   1.000
    N17     N    0.70534   0.48064   0.41884   1.000
    N18     N    0.51551   0.71527   0.99917   1.000
    N19     N    0.55485   0.03691   0.76784   1.000
    N20     N    0.05275   0.46440   0.76925   1.000
    N21     N    0.55496   0.53689   0.73227   1.000
    N22     N    0.94595   0.03565   0.26928   1.000
    N23     N    0.44496   0.96309   0.23228   1.000
    Zr24    Zr   0.52404   0.09152   0.92690   1.000
    O25     O    0.44947   0.06579   0.92720   1.000
    O26     O    0.53900   0.06274   0.87793   1.000
    O27     O    0.52955   0.08414   0.87257   1.000
    O28     O    0.51171   0.15785   0.94898   1.000
    O29     O    0.58263   0.05871   0.97597   1.000
    Zr30    Zr   0.57337   0.52032   0.90639   1.000
    O31     O    0.64784   0.51063   0.91234   1.000
    O32     O    0.55267   0.58199   0.93926   1.000
    O33     O    0.56267   0.53500   0.85164   1.000
    O34     O    0.54396   0.44563   0.93434   1.000
    Zr35    Zr   0.02226   0.90849   0.57320   1.000
    O36     O    0.08141   0.94100   0.52477   1.000
    O37     O    0.01003   0.84221   0.55116   1.000
    O38     O    0.02695   0.91659   0.62756   1.000
    O39     O    0.03690   0.93817   0.62224   1.000
    O40     O    0.94823   0.93449   0.57285   1.000
    Zr41    Zr   0.07213   0.98035   0.90660   1.000
    O42     O    0.04259   0.05453   0.93531   1.000
    O43     O    0.14696   0.99018   0.91224   1.000
    O44     O    0.05229   0.91850   0.93952   1.000
    O45     O    0.06100   0.96602   0.85181   1.000
    Zr46    Zr   0.42651   0.97964   0.40638   1.000
    O47     O    0.45589   0.05436   0.43437   1.000
    O48     O    0.43723   0.96496   0.35163   1.000
    O49     O    0.44726   0.91797   0.43926   1.000
    O50     O    0.35204   0.98936   0.41238   1.000
    Zr51    Zr   0.92734   0.51974   0.40685   1.000
    O52     O    0.95701   0.44559   0.43548   1.000
    O53     O    0.85264   0.50990   0.41245   1.000
    O54     O    0.93754   0.53401   0.35190   1.000
    O55     O    0.94752   0.58165   0.43963   1.000
    Zr56    Zr   0.02210   0.40781   0.92939   1.000
    O57     O    0.03700   0.43766   0.87989   1.000
    O58     O    0.00971   0.34144   0.95140   1.000
    O59     O    0.94827   0.43410   0.92910   1.000
    O60     O    0.02700   0.41586   0.87484   1.000
    O61     O    0.08135   0.44061   0.97735   1.000
    Zr62    Zr   0.07250   0.48178   0.59663   1.000
    O63     O    0.06136   0.46665   0.65095   1.000
    O64     O    0.14720   0.49122   0.59007   1.000
    O65     O    0.04293   0.55576   0.56769   1.000
    O66     O    0.05248   0.41970   0.56353   1.000
    Zr67    Zr   0.57316   0.02040   0.59365   1.000
    O68     O    0.55241   0.08209   0.56079   1.000
    O69     O    0.56250   0.03506   0.64842   1.000
    O70     O    0.54375   0.94570   0.56569   1.000
    O71     O    0.64756   0.01064   0.58794   1.000
    Zr72    Zr   0.47618   0.90836   0.07314   1.000
    O73     O    0.41755   0.94113   0.02429   1.000
    O74     O    0.48851   0.84204   0.05106   1.000
    O75     O    0.46108   0.93720   0.12214   1.000
    O76     O    0.47052   0.91579   0.12750   1.000
    O77     O    0.55066   0.93405   0.07307   1.000
    Zr78    Zr   0.97780   0.09226   0.42943   1.000
    O79     O    0.99016   0.15866   0.45144   1.000
    O80     O    0.05165   0.06600   0.42919   1.000
    O81     O    0.96262   0.06240   0.37992   1.000
    O82     O    0.97155   0.08421   0.37488   1.000
    O83     O    0.91849   0.05951   0.47728   1.000
    Zr84    Zr   0.47583   0.40846   0.42701   1.000
    O85     O    0.41727   0.44133   0.47599   1.000
    O86     O    0.47035   0.41585   0.37263   1.000
    O87     O    0.46090   0.43724   0.37800   1.000
    O88     O    0.48813   0.34216   0.44908   1.000
    O89     O    0.55038   0.43423   0.42731   1.000
    Zr90    Zr   0.97752   0.59162   0.07325   1.000
    O91     O    0.91843   0.55912   0.02474   1.000
    O92     O    0.97115   0.58348   0.12754   1.000
    O93     O    0.05154   0.56563   0.07298   1.000
    O94     O    0.96229   0.56177   0.12223   1.000
    O95     O    0.98997   0.65794   0.05122   1.000
    Zr96    Zr   0.92757   0.01861   0.09660   1.000
    O97     O    0.94749   0.08060   0.06349   1.000
    O98     O    0.93837   0.03362   0.15095   1.000
    O99     O    0.95719   0.94457   0.06769   1.000
    O100    O    0.85283   0.00908   0.09010   1.000
    Zr101   Zr   0.52378   0.59164   0.57314   1.000
    O102    O    0.44930   0.56599   0.57302   1.000
    O103    O    0.58236   0.55889   0.52433   1.000
    O104    O    0.52944   0.58420   0.62749   1.000
    O105    O    0.53887   0.56280   0.62214   1.000
    O106    O    0.51147   0.65795   0.55106   1.000
    Zr107   Zr   0.42680   0.47966   0.09366   1.000
    O108    O    0.43746   0.46498   0.14842   1.000
    O109    O    0.45623   0.55433   0.06569   1.000
    O110    O    0.44748   0.41797   0.06076   1.000
    O111    O    0.35233   0.48948   0.08803   1.000
loop_
    _geom_bond_atom_site_label_1
    _geom_bond_atom_site_label_2
    _geom_bond_distance
    _geom_bond_site_symmetry_2
    _ccdc_geom_bond_type
    Zr24   O25       1.04214      .   S
    N15    O25       2.13876      .   S
    Zr24   O26       0.94499      .   S
    N19    O26       1.91655      .   S
    Zr24   O27       0.93177      .   S
    N19    O27       1.92700      .   S
    Zr24   O28       1.01296      .   S
    N3     O28       2.01063  1_554   S
    Zr24   O29       1.22364      .   S
    N2     O29       2.65531  1_564   S
    Zr30   O31       0.99236      .   S
    N11    O31       1.97479      .   S
    Zr30   O32       1.06267      .   S
    N18    O32       2.17819      .   S
    Zr30   O33       0.96286      .   S
    N21    O33       2.03061      .   S
    Zr30   O34       1.20908      .   S
    N3     O34       2.63259  1_554   S
    Zr35   O36       1.21893      .   S
    N10    O36       2.64683  1_545   S
    Zr35   O37       1.01125      .   S
    N6     O37       2.00894  1_655   S
    Zr35   O38       0.93250      .   S
    N4     O38       1.93499      .   S
    Zr35   O39       0.95002      .   S
    N4     O39       1.92051      .   S
    Zr35   O40       1.03819  1_455   S
    N14    O40       2.13095      .   S
    Zr41   O42       1.20998  1_565   S
    N16    O42       2.63491  1_654   S
    Zr41   O43       0.99610      .   S
    N15    O43       1.98143  1_545   S
    Zr41   O44       1.06138      .   S
    N0     O44       2.17512      .   S
    Zr41   O45       0.96320      .   S
    N4     O45       2.03067      .   S
    Zr46   O47       1.20936  1_565   S
    N9     O47       2.63334      .   S
    Zr46   O48       0.96300      .   S
    N23    O48       2.03059      .   S
    Zr46   O49       1.06250      .   S
    N12    O49       2.17793      .   S
    Zr46   O50       0.99264      .   S
    N10    O50       1.97511  1_545   S
    Zr51   O52       1.20941      .   S
    N8     O52       2.63387  1_455   S
    Zr51   O53       0.99465      .   S
    N17    O53       1.97870      .   S
    Zr51   O54       0.96411      .   S
    N5     O54       2.03498      .   S
    Zr51   O55       1.06160      .   S
    N6     O55       2.17569      .   S
    Zr56   O57       0.95888      .   S
    N20    O57       1.92757      .   S
    Zr56   O58       1.01263      .   S
    N16    O58       2.01067  1_654   S
    Zr56   O59       1.03722  1_455   S
    N11    O59       2.12954      .   S
    Zr56   O60       0.93586      .   S
    N20    O60       1.94733      .   S
    Zr56   O61       1.21505      .   S
    N1     O61       2.64001  1_554   S
    Zr62   O63       0.95805      .   S
    N20    O63       2.01351      .   S
    Zr62   O64       0.99557      .   S
    N7     O64       1.97907      .   S
    Zr62   O65       1.20907      .   S
    N6     O65       2.63303  1_655   S
    Zr62   O66       1.06589      .   S
    N8     O66       2.18350      .   S
    Zr67   O68       1.06257      .   S
    N9     O68       2.17801      .   S
    Zr67   O69       0.96319      .   S
    N19    O69       2.03170      .   S
    Zr67   O70       1.20895  1_545   S
    N12    O70       2.63256      .   S
    Zr67   O71       0.99136      .   S
    N14    O71       1.97310  1_565   S
    Zr72   O73       1.22114      .   S
    N15    O73       2.65085  1_546   S
    Zr72   O74       1.01277      .   S
    N18    O74       2.01051  1_556   S
    Zr72   O75       0.94621      .   S
    N23    O75       1.91786      .   S
    Zr72   O76       0.93246      .   S
    N23    O76       1.92876      .   S
    Zr72   O77       1.04086      .   S
    N2     O77       2.13646      .   S
    Zr78   O79       1.01281      .   S
    N8     O79       2.01075  1_455   S
    Zr78   O80       1.03726  1_655   S
    N10    O80       2.12967      .   S
    Zr78   O81       0.95958      .   S
    N22    O81       1.92869      .   S
    Zr78   O82       0.93709      .   S
    N22    O82       1.94688      .   S
    Zr78   O83       1.21499      .   S
    N14    O83       2.63994  1_565   S
    Zr84   O85       1.22351      .   S
    N7     O85       2.65502      .   S
    Zr84   O86       0.93233      .   S
    N13    O86       1.92763      .   S
    Zr84   O87       0.94531      .   S
    N13    O87       1.91738      .   S
    Zr84   O88       1.01249      .   S
    N9     O88       2.01004      .   S
    Zr84   O89       1.04205      .   S
    N17    O89       2.13881      .   S
    Zr90   O91       1.21852      .   S
    N11    O91       2.64598  1_556   S
    Zr90   O92       0.93311      .   S
    N5     O92       1.93597      .   S
    Zr90   O93       1.03794  1_655   S
    N1     O93       2.13038      .   S
    Zr90   O94       0.95200      .   S
    N5     O94       1.92082      .   S
    Zr90   O95       1.01229      .   S
    N0     O95       2.01070  1_456   S
    Zr96   O97       1.06487      .   S
    N16    O97       2.18150      .   S
    Zr96   O98       0.95722      .   S
    N22    O98       2.01307      .   S
    Zr96   O99       1.21006  1_545   S
    N0     O99       2.63487  1_456   S
    Zr96   O100      0.99591      .   S
    N2     O100      1.97991  1_565   S
    Zr101  O102      1.04066      .   S
    N7     O102      2.13606      .   S
    Zr101  O103      1.22096      .   S
    N17    O103      2.65062      .   S
    Zr101  O104      0.93223      .   S
    N21    O104      1.92825      .   S
    Zr101  O105      0.94587      .   S
    N21    O105      1.91744      .   S
    Zr101  O106      1.01259      .   S
    N12    O106      2.01006      .   S
    Zr107  O108      0.96296      .   S
    N13    O108      2.03126      .   S
    Zr107  O109      1.20898      .   S
    N18    O109      2.63272  1_556   S
    Zr107  O110      1.06298      .   S
    N3     O110      2.17903      .   S
    Zr107  O111      0.99205      .   S
    N1     O111      1.97475      .   S
