# CIF file generated by openbabel 2.4.90, see http://openbabel.sf.net
data_I
_chemical_name_common ''
_cell_length_a 14.239
_cell_length_b 14.542
_cell_length_c 15.068
_cell_angle_alpha 89.691
_cell_angle_beta 90.222
_cell_angle_gamma 90.189
_space_group_name_H-M_alt 'P 1'
_space_group_name_Hall 'P 1'
loop_
    _symmetry_equiv_pos_as_xyz
    x,y,z
loop_
    _atom_site_label
    _atom_site_type_symbol
    _atom_site_fract_x
    _atom_site_fract_y
    _atom_site_fract_z
    _atom_site_occupancy
    C0      C    0.56481   0.54309   0.94793   1.000
    C1      C    0.69105   0.66043   0.82545   1.000
    C2      C    0.93441   0.45719   0.44800   1.000
    C3      C    0.80696   0.34317   0.32602   1.000
    C4      C    0.43229   0.04305   0.55122   1.000
    C5      C    0.30810   0.16027   0.67097   1.000
    C6      C    0.06568   0.96061   0.05095   1.000
    C7      C    0.18983   0.84369   0.17448   1.000
    C8      C    0.83410   0.76447   0.02647   1.000
    C9      C    0.97678   0.69915   0.27126   1.000
    C10     C    0.73993   0.53606   0.18640   1.000
    C11     C    0.66575   0.23663   0.52801   1.000
    C12     C    0.52167   0.30430   0.76970   1.000
    C13     C    0.76070   0.46489   0.68607   1.000
    C14     C    0.16723   0.26347   0.47117   1.000
    C15     C    0.02022   0.20035   0.22858   1.000
    C16     C    0.25815   0.03726   0.30973   1.000
    C17     C    0.33360   0.73872   0.97400   1.000
    C18     C    0.47647   0.80390   0.73085   1.000
    C19     C    0.23882   0.96510   0.81250   1.000
    C20     C    0.77940   0.64800   0.09926   1.000
    C21     C    0.84097   0.72201   0.08580   1.000
    C22     C    0.91177   0.74074   0.14789   1.000
    C23     C    0.92097   0.68524   0.22362   1.000
    C24     C    0.85875   0.61188   0.23775   1.000
    C25     C    0.78783   0.59345   0.17563   1.000
    C26     C    0.70654   0.62710   0.03106   1.000
    C27     C    0.97923   0.81783   0.13293   1.000
    C28     C    0.86925   0.55108   0.31655   1.000
    C29     C    0.72110   0.35278   0.60000   1.000
    C30     C    0.65883   0.27939   0.58664   1.000
    C31     C    0.58726   0.26169   0.64791   1.000
    C32     C    0.57800   0.31755   0.72277   1.000
    C33     C    0.64073   0.39047   0.73675   1.000
    C34     C    0.71238   0.40786   0.67542   1.000
    C35     C    0.79465   0.37301   0.53258   1.000
    C36     C    0.51902   0.18534   0.63281   1.000
    C37     C    0.63039   0.45193   0.81455   1.000
    C38     C    0.22060   0.14817   0.39751   1.000
    C39     C    0.15925   0.22164   0.41196   1.000
    C40     C    0.08724   0.24060   0.35109   1.000
    C41     C    0.07677   0.18613   0.27540   1.000
    C42     C    0.13864   0.11327   0.26024   1.000
    C43     C    0.21060   0.09434   0.32127   1.000
    C44     C    0.29456   0.12703   0.46475   1.000
    C45     C    0.02000   0.31700   0.36723   1.000
    C46     C    0.12647   0.05395   0.18122   1.000
    C47     C    0.27840   0.85402   0.90070   1.000
    C48     C    0.34045   0.78088   0.91528   1.000
    C49     C    0.41155   0.76256   0.85396   1.000
    C50     C    0.42059   0.81762   0.77796   1.000
    C51     C    0.35816   0.89027   0.76283   1.000
    C52     C    0.28696   0.90830   0.82413   1.000
    C53     C    0.20497   0.87461   0.96790   1.000
    C54     C    0.47916   0.68601   0.86935   1.000
    C55     C    0.36885   0.95043   0.68350   1.000
    C56     C    0.65434   0.55544   0.04438   1.000
    C57     C    0.69890   0.67997   0.96403   1.000
    C58     C    0.96767   0.86716   0.06240   1.000
    C59     C    0.04417   0.83132   0.18969   1.000
    C60     C    0.94212   0.56204   0.36671   1.000
    C61     C    0.80745   0.48944   0.33272   1.000
    C62     C    0.84752   0.44407   0.54619   1.000
    C63     C    0.80238   0.32066   0.46574   1.000
    C64     C    0.53040   0.13617   0.56269   1.000
    C65     C    0.45368   0.17229   0.68890   1.000
    C66     C    0.55802   0.44066   0.86500   1.000
    C67     C    0.69188   0.51391   0.82942   1.000
    C68     C    0.34569   0.05503   0.45188   1.000
    C69     C    0.30435   0.17981   0.53110   1.000
    C70     C    0.03244   0.36480   0.43824   1.000
    C71     C    0.95451   0.33173   0.31133   1.000
    C72     C    0.05397   0.06635   0.13092   1.000
    C73     C    0.18667   0.99156   0.16413   1.000
    C74     C    0.15219   0.94528   0.95304   1.000
    C75     C    0.19745   0.82268   0.03560   1.000
    C76     C    0.46841   0.63722   0.94048   1.000
    C77     C    0.54326   0.67189   0.81253   1.000
    C78     C    0.44079   0.93822   0.63313   1.000
    C79     C    0.30818   0.01267   0.66698   1.000
    O80     O    0.83753   0.74324   0.05614   1.000
    O81     O    0.68044   0.59127   0.03772   1.000
    O82     O    0.74297   0.63755   0.06516   1.000
    O83     O    0.70272   0.65353   0.99755   1.000
    O84     O    0.19364   0.83318   0.10504   1.000
    O85     O    0.20121   0.84865   0.00175   1.000
    O86     O    0.60958   0.54927   0.99616   1.000
    O87     O    0.01667   0.91389   0.05668   1.000
    O88     O    0.05983   0.01348   0.09094   1.000
    O89     O    0.10893   0.95294   0.00200   1.000
    O90     O    0.97345   0.84250   0.09767   1.000
    O91     O    0.81018   0.68501   0.09253   1.000
    O92     O    0.87637   0.73138   0.11684   1.000
    O93     O    0.78361   0.62073   0.13745   1.000
    O94     O    0.09022   0.06015   0.15607   1.000
    O95     O    0.94550   0.77929   0.14041   1.000
    O96     O    0.01170   0.82458   0.16131   1.000
    O97     O    0.91637   0.71299   0.18576   1.000
    O98     O    0.18825   0.91762   0.16930   1.000
    O99     O    0.15657   0.02276   0.17267   1.000
    O100    O    0.11700   0.83751   0.18208   1.000
    O101    O    0.76388   0.56475   0.18102   1.000
    O102    O    0.82329   0.60267   0.20669   1.000
    O103    O    0.13256   0.08361   0.22073   1.000
    O104    O    0.88986   0.64856   0.23069   1.000
    O105    O    0.94887   0.69219   0.24744   1.000
    O106    O    0.04850   0.19324   0.25199   1.000
    O107    O    0.86400   0.58148   0.27715   1.000
    O108    O    0.10770   0.14970   0.26782   1.000
    O109    O    0.17462   0.10381   0.29076   1.000
    O110    O    0.08200   0.21336   0.31324   1.000
    O111    O    0.23437   0.06580   0.31550   1.000
    O112    O    0.88073   0.33745   0.31867   1.000
    O113    O    0.98725   0.32437   0.33928   1.000
    O114    O    0.83835   0.52026   0.32464   1.000
    O115    O    0.90569   0.55656   0.34163   1.000
    O116    O    0.21560   0.12126   0.35939   1.000
    O117    O    0.80720   0.41631   0.32937   1.000
    O118    O    0.80467   0.33192   0.39588   1.000
    O119    O    0.05362   0.27880   0.35916   1.000
    O120    O    0.12324   0.23112   0.38153   1.000
    O121    O    0.93827   0.50961   0.40736   1.000
    O122    O    0.02622   0.34090   0.40274   1.000
    O123    O    0.18993   0.18490   0.40474   1.000
    O124    O    0.25758   0.13760   0.43113   1.000
    O125    O    0.16324   0.24255   0.44157   1.000
    O126    O    0.98343   0.41099   0.44312   1.000
    O127    O    0.89097   0.45063   0.49710   1.000
    O128    O    0.32013   0.09103   0.45831   1.000
    O129    O    0.38899   0.04904   0.50155   1.000
    O130    O    0.29946   0.15342   0.49793   1.000
    O131    O    0.79852   0.34683   0.49916   1.000
    O132    O    0.66229   0.25801   0.55733   1.000
    O133    O    0.30623   0.17004   0.60103   1.000
    O134    O    0.82108   0.40854   0.53939   1.000
    O135    O    0.75787   0.36289   0.56629   1.000
    O136    O    0.48134   0.08961   0.55695   1.000
    O137    O    0.43654   0.99064   0.59218   1.000
    O138    O    0.52471   0.16075   0.59775   1.000
    O139    O    0.68997   0.31608   0.59332   1.000
    O140    O    0.62305   0.27054   0.61728   1.000
    O141    O    0.71674   0.38032   0.63771   1.000
    O142    O    0.55314   0.22351   0.64036   1.000
    O143    O    0.48635   0.17881   0.66086   1.000
    O144    O    0.40482   0.94432   0.65831   1.000
    O145    O    0.58263   0.28962   0.68534   1.000
    O146    O    0.30814   0.08647   0.66898   1.000
    O147    O    0.33852   0.98155   0.67524   1.000
    O148    O    0.38089   0.16628   0.67993   1.000
    O149    O    0.73654   0.43637   0.68074   1.000
    O150    O    0.67656   0.39916   0.70609   1.000
    O151    O    0.36351   0.92035   0.72317   1.000
    O152    O    0.60936   0.35401   0.72976   1.000
    O153    O    0.54984   0.31093   0.74623   1.000
    O154    O    0.44853   0.81076   0.75440   1.000
    O155    O    0.63556   0.42120   0.77565   1.000
    O156    O    0.38937   0.85394   0.77039   1.000
    O157    O    0.32256   0.89929   0.79348   1.000
    O158    O    0.41607   0.79009   0.81596   1.000
    O159    O    0.26289   0.93670   0.81832   1.000
    O160    O    0.61715   0.66616   0.81899   1.000
    O161    O    0.51121   0.67895   0.84094   1.000
    O162    O    0.66114   0.48292   0.82199   1.000
    O163    O    0.59421   0.44629   0.83978   1.000
    O164    O    0.28268   0.88116   0.86242   1.000
    O165    O    0.69147   0.58717   0.82744   1.000
    O166    O    0.69497   0.67020   0.89474   1.000
    O167    O    0.44535   0.72428   0.86165   1.000
    O168    O    0.37600   0.77172   0.88462   1.000
    O169    O    0.56142   0.49187   0.90647   1.000
    O170    O    0.47379   0.66162   0.90491   1.000
    O171    O    0.30943   0.81745   0.90799   1.000
    O172    O    0.24168   0.86432   0.93430   1.000
    O173    O    0.33703   0.75980   0.94464   1.000
    O174    O    0.51661   0.59016   0.94420   1.000
    O175    O    0.17858   0.90994   0.96047   1.000
loop_
    _geom_bond_atom_site_label_1
    _geom_bond_atom_site_label_2
    _geom_bond_distance
    _geom_bond_site_symmetry_2
    _ccdc_geom_bond_type
    C8     O80       0.54399      .   S
    C21    O80       0.54399      .   S
    C26    O81       0.64660      .   S
    C56    O81       0.64660      .   S
    C26    O82       0.74458      .   S
    C20    O82       0.74458      .   S
    C26    O83       0.63529  1_554   S
    C57    O83       0.63529      .   S
    C75    O84       1.05985      .   S
    C7     O84       1.05985      .   S
    C75    O85       0.63530      .   S
    C53    O85       0.63530  1_556   S
    C56    O86       0.96909  1_554   S
    C0     O86       0.96909      .   S
    C6     O87       0.97608      .   S
    C58    O87       0.97608  1_655   S
    C6     O88       0.98330  1_565   S
    C72    O88       0.98330      .   S
    C6     O89       0.96991      .   S
    C74    O89       0.96991  1_556   S
    C58    O90       0.64467      .   S
    C27    O90       0.64467      .   S
    C21    O91       0.70018      .   S
    C20    O91       0.70018      .   S
    C21    O92       0.69987      .   S
    C22    O92       0.69987      .   S
    C20    O93       0.69960      .   S
    C25    O93       0.69960      .   S
    C72    O94       0.64542      .   S
    C46    O94       0.64542      .   S
    C27    O95       0.74538      .   S
    C22    O95       0.74538      .   S
    C27    O96       0.63626  1_655   S
    C59    O96       0.63626      .   S
    C22    O97       0.70003      .   S
    C23    O97       0.70003      .   S
    C73    O98       1.07787      .   S
    C7     O98       1.07787      .   S
    C73    O99       0.63908  1_565   S
    C46    O99       0.63908      .   S
    C7     O100      1.04729      .   S
    C59    O100      1.04729      .   S
    C25    O101      0.54397      .   S
    C10    O101      0.54397      .   S
    C25    O102      0.70021      .   S
    C24    O102      0.70021      .   S
    C46    O103      0.74166      .   S
    C42    O103      0.74166      .   S
    C23    O104      0.70021      .   S
    C24    O104      0.70021      .   S
    C23    O105      0.54399      .   S
    C9     O105      0.54399      .   S
    C15    O106      0.54405      .   S
    C41    O106      0.54405      .   S
    C24    O107      0.74201      .   S
    C28    O107      0.74201      .   S
    C42    O108      0.70018      .   S
    C41    O108      0.70018      .   S
    C42    O109      0.70056      .   S
    C43    O109      0.70056      .   S
    C41    O110      0.69967      .   S
    C40    O110      0.69967      .   S
    C16    O111      0.54407      .   S
    C43    O111      0.54407      .   S
    C71    O112      1.06034      .   S
    C3     O112      1.06034      .   S
    C71    O113      0.63605      .   S
    C45    O113      0.63605  1_455   S
    C28    O114      0.63858      .   S
    C61    O114      0.63858      .   S
    C28    O115      0.64562      .   S
    C60    O115      0.64562      .   S
    C43    O116      0.70006      .   S
    C38    O116      0.70006      .   S
    C3     O117      1.06499      .   S
    C61    O117      1.06499      .   S
    C3     O118      1.06504      .   S
    C63    O118      1.06504      .   S
    C40    O119      0.74529      .   S
    C45    O119      0.74529      .   S
    C40    O120      0.70013      .   S
    C39    O120      0.70013      .   S
    C60    O121      0.97685      .   S
    C2     O121      0.97685      .   S
    C45    O122      0.64518      .   S
    C70    O122      0.64518      .   S
    C38    O123      0.70037      .   S
    C39    O123      0.70037      .   S
    C38    O124      0.74506      .   S
    C44    O124      0.74506      .   S
    C39    O125      0.54395      .   S
    C14    O125      0.54395      .   S
    C70    O126      0.97355  1_455   S
    C2     O126      0.97355      .   S
    C2     O127      0.97028      .   S
    C62    O127      0.97028      .   S
    C68    O128      0.64657      .   S
    C44    O128      0.64657      .   S
    C68    O129      0.97154      .   S
    C4     O129      0.97154      .   S
    C44    O130      0.63530      .   S
    C69    O130      0.63530      .   S
    C63    O131      0.63555      .   S
    C35    O131      0.63555      .   S
    C11    O132      0.54400      .   S
    C30    O132      0.54400      .   S
    C69    O133      1.06280      .   S
    C5     O133      1.06280      .   S
    C35    O134      0.64668      .   S
    C62    O134      0.64668      .   S
    C35    O135      0.74470      .   S
    C29    O135      0.74470      .   S
    C4     O136      0.97511      .   S
    C64    O136      0.97511      .   S
    C4     O137      0.98001  1_545   S
    C78    O137      0.98001      .   S
    C64    O138      0.64499      .   S
    C36    O138      0.64499      .   S
    C30    O139      0.70006      .   S
    C29    O139      0.70006      .   S
    C30    O140      0.70004      .   S
    C31    O140      0.70004      .   S
    C29    O141      0.69999      .   S
    C34    O141      0.69999      .   S
    C36    O142      0.74542      .   S
    C31    O142      0.74542      .   S
    C36    O143      0.63623      .   S
    C65    O143      0.63623      .   S
    C78    O144      0.64525      .   S
    C55    O144      0.64525      .   S
    C31    O145      0.70026      .   S
    C32    O145      0.70026      .   S
    C79    O146      1.07384      .   S
    C5     O146      1.07384      .   S
    C79    O147      0.63806  1_545   S
    C55    O147      0.63806      .   S
    C5     O148      1.04809      .   S
    C65    O148      1.04809      .   S
    C34    O149      0.54397      .   S
    C13    O149      0.54397      .   S
    C34    O150      0.70032      .   S
    C33    O150      0.70032      .   S
    C55    O151      0.74271      .   S
    C51    O151      0.74271      .   S
    C32    O152      0.70028      .   S
    C33    O152      0.70028      .   S
    C32    O153      0.54365      .   S
    C12    O153      0.54365      .   S
    C18    O154      0.54399      .   S
    C50    O154      0.54399      .   S
    C33    O155      0.74301      .   S
    C37    O155      0.74301      .   S
    C51    O156      0.70008      .   S
    C50    O156      0.70008      .   S
    C51    O157      0.70026      .   S
    C52    O157      0.70026      .   S
    C50    O158      0.69994      .   S
    C49    O158      0.69994      .   S
    C19    O159      0.54404      .   S
    C52    O159      0.54404      .   S
    C77    O160      1.05984      .   S
    C1     O160      1.05984      .   S
    C77    O161      0.63586      .   S
    C54    O161      0.63586      .   S
    C37    O162      0.63734      .   S
    C67    O162      0.63734      .   S
    C37    O163      0.64616      .   S
    C66    O163      0.64616      .   S
    C52    O164      0.69993      .   S
    C47    O164      0.69993      .   S
    C1     O165      1.06565      .   S
    C67    O165      1.06565      .   S
    C1     O166      1.05568      .   S
    C57    O166      1.05568      .   S
    C49    O167      0.74534      .   S
    C54    O167      0.74534      .   S
    C49    O168      0.70022      .   S
    C48    O168      0.70022      .   S
    C66    O169      0.97571      .   S
    C0     O169      0.97571      .   S
    C54    O170      0.64574      .   S
    C76    O170      0.64574      .   S
    C47    O171      0.70043      .   S
    C48    O171      0.70043      .   S
    C47    O172      0.74530      .   S
    C53    O172      0.74530      .   S
    C48    O173      0.53914      .   S
    C17    O173      0.53914      .   S
    C76    O174      0.97208      .   S
    C0     O174      0.97208      .   S
    C74    O175      0.64656      .   S
    C53    O175      0.64656      .   S
