# CIF file generated by openbabel 2.4.90, see http://openbabel.sf.net
data_I
_chemical_name_common ''
_cell_length_a 12.7072
_cell_length_b 12.778
_cell_length_c 18.446
_cell_angle_alpha 90.23
_cell_angle_beta 90.0279
_cell_angle_gamma 60.2818
_space_group_name_H-M_alt 'P 1'
_space_group_name_Hall 'P 1'
loop_
    _symmetry_equiv_pos_as_xyz
    x,y,z
loop_
    _atom_site_label
    _atom_site_type_symbol
    _atom_site_fract_x
    _atom_site_fract_y
    _atom_site_fract_z
    _atom_site_occupancy
    Zr0     Zr   0.99940   0.63049   0.49987   1.000
    Zr1     Zr   0.36988   0.99993   0.16605   1.000
    Zr2     Zr   0.63023   0.36927   0.83385   1.000
    N3      N    0.48629   0.09261   0.90634   1.000
    O4      O    0.45594   0.04015   0.01213   1.000
    N5      N    0.42030   0.48638   0.57391   1.000
    O6      O    0.50340   0.45558   0.67995   1.000
    N7      N    0.09421   0.41882   0.24000   1.000
    O8      O    0.04076   0.50286   0.34587   1.000
    N9      N    0.57965   0.90681   0.42609   1.000
    O10     O    0.49662   0.95948   0.32013   1.000
    N11     N    0.51325   0.58040   0.09352   1.000
    O12     O    0.54409   0.49629   0.98778   1.000
    N13     N    0.90660   0.51418   0.76010   1.000
    O14     O    0.95881   0.54482   0.65400   1.000
    O15     O    0.74503   0.80161   0.46177   1.000
    O16     O    0.25450   0.54690   0.53816   1.000
    O17     O    0.45292   0.74586   0.12852   1.000
    O18     O    0.19920   0.25371   0.20429   1.000
    O19     O    0.54677   0.19792   0.87128   1.000
    O20     O    0.80148   0.45337   0.79581   1.000
loop_
    _geom_bond_atom_site_label_1
    _geom_bond_atom_site_label_2
    _geom_bond_distance
    _geom_bond_site_symmetry_2
    _ccdc_geom_bond_type
    N3     O4        2.16198  1_556   S
    Zr1    O4        3.17694  1_565   S
    N5     O6        2.16524      .   S
    Zr2    O6        3.18285      .   S
    N7     O8        2.16564      .   S
    Zr0    O8        3.18118  1_655   S
    N9     O10       2.16592      .   S
    Zr1    O10       3.18130      .   S
    N11    O12       2.16308  1_554   S
    Zr2    O12       3.17806      .   S
    N13    O14       2.16547      .   S
    Zr0    O14       3.18323      .   S
    Zr0    O15       2.95391      .   S
    N9     O15       1.96501      .   S
    Zr0    O16       2.95274  1_655   S
    N5     O16       1.96456      .   S
    N11    O17       1.96398      .   S
    Zr1    O17       2.95273      .   S
    Zr1    O18       2.95423  1_565   S
    N7     O18       1.96561      .   S
    Zr2    O19       2.95137      .   S
    N3     O19       1.96273      .   S
    Zr2    O20       2.95106      .   S
    N13    O20       1.96371      .   S
