# CIF file generated by openbabel 2.4.90, see http://openbabel.sf.net
data_I
_chemical_name_common ''
_cell_length_a 16.019
_cell_length_b 20.377
_cell_length_c 12.161
_cell_angle_alpha 114.729
_cell_angle_beta 98.091
_cell_angle_gamma 89.99
_space_group_name_H-M_alt 'P 1'
_space_group_name_Hall 'P 1'
loop_
    _symmetry_equiv_pos_as_xyz
    x,y,z
loop_
    _atom_site_label
    _atom_site_type_symbol
    _atom_site_fract_x
    _atom_site_fract_y
    _atom_site_fract_z
    _atom_site_occupancy
    N0      N    0.87509   0.55890   0.00026   1.000
    N1      N    0.62492   0.94557   0.99977   1.000
    N2      N    0.68949   0.13432   0.55546   1.000
    N3      N    0.87509   0.05891   0.00026   1.000
    N4      N    0.62492   0.44558   0.99977   1.000
    N5      N    0.12492   0.94557   0.99977   1.000
    N6      N    0.37510   0.55890   0.00023   1.000
    N7      N    0.37508   0.05440   0.00025   1.000
    N8      N    0.18949   0.63431   0.55546   1.000
    N9      N    0.12492   0.44557   0.99973   1.000
    N10     N    0.31051   0.36566   0.44456   1.000
    N11     N    0.87473   0.45971   0.30000   1.000
    N12     N    0.06027   0.35654   0.44441   1.000
    N13     N    0.56027   0.85654   0.44446   1.000
    N14     N    0.93973   0.64343   0.55558   1.000
    N15     N    0.31051   0.86565   0.44456   1.000
    N16     N    0.87473   0.95971   0.30000   1.000
    N17     N    0.81051   0.86566   0.44456   1.000
    N18     N    0.81051   0.36566   0.44456   1.000
    N19     N    0.93973   0.14343   0.55558   1.000
    N20     N    0.06027   0.85654   0.44445   1.000
    N21     N    0.43974   0.14343   0.55558   1.000
    N22     N    0.43974   0.64343   0.55558   1.000
    N23     N    0.18949   0.13431   0.55546   1.000
    N24     N    0.68949   0.63431   0.55546   1.000
    N25     N    0.56026   0.35654   0.44446   1.000
    N26     N    0.37473   0.45971   0.10000   1.000
    Zr27    Zr   0.50000   0.99998   0.50001   1.000
    O28     O    0.52132   0.94994   0.48229   1.000
    O29     O    0.47868   0.05003   0.51773   1.000
    O30     O    0.53769   0.98583   0.35271   1.000
    O31     O    0.46231   0.01414   0.64731   1.000
    O32     O    0.58884   0.05654   0.54241   1.000
    O33     O    0.41116   0.94343   0.45761   1.000
    Zr34    Zr   0.75000   0.74998   0.50001   1.000
    O35     O    0.66114   0.78536   0.45739   1.000
    O36     O    0.83886   0.71461   0.54264   1.000
    O37     O    0.71225   0.80944   0.64713   1.000
    O38     O    0.77143   0.79114   0.48231   1.000
    O39     O    0.72857   0.70883   0.51772   1.000
    O40     O    0.78775   0.69165   0.35289   1.000
    Zr41    Zr   0.75000   0.24999   0.50002   1.000
    O42     O    0.66113   0.28537   0.45739   1.000
    O43     O    0.83886   0.21461   0.54264   1.000
    O44     O    0.77143   0.29115   0.48231   1.000
    O45     O    0.72857   0.20883   0.51772   1.000
    O46     O    0.71225   0.30945   0.64714   1.000
    O47     O    0.78775   0.19166   0.35290   1.000
    Zr48    Zr   0.00000   0.99998   0.50001   1.000
    O49     O    0.97868   0.05003   0.51773   1.000
    O50     O    0.02132   0.94994   0.48229   1.000
    O51     O    0.96232   0.01527   0.64731   1.000
    O52     O    0.03769   0.98583   0.35271   1.000
    O53     O    0.08884   0.05654   0.54242   1.000
    O54     O    0.93398   0.97649   0.40648   1.000
    O55     O    0.91116   0.94343   0.45761   1.000
    Zr56    Zr   0.00000   0.49998   0.50002   1.000
    O57     O    0.93398   0.47648   0.40648   1.000
    O58     O    0.91116   0.44343   0.45761   1.000
    O59     O    0.97869   0.55003   0.51774   1.000
    O60     O    0.02132   0.44994   0.48228   1.000
    O61     O    0.96232   0.51526   0.64732   1.000
    O62     O    0.03769   0.48583   0.35271   1.000
    O63     O    0.08884   0.55654   0.54242   1.000
    Zr64    Zr   0.25000   0.74998   0.50001   1.000
    O65     O    0.33887   0.71460   0.54264   1.000
    O66     O    0.16114   0.78536   0.45739   1.000
    O67     O    0.27143   0.79114   0.48231   1.000
    O68     O    0.21225   0.80944   0.64713   1.000
    O69     O    0.22857   0.70882   0.51772   1.000
    O70     O    0.28776   0.69165   0.35288   1.000
    Zr71    Zr   0.50000   0.49998   0.50002   1.000
    O72     O    0.58884   0.55654   0.54242   1.000
    O73     O    0.47869   0.55003   0.51774   1.000
    O74     O    0.52132   0.44994   0.48230   1.000
    O75     O    0.46232   0.51526   0.64731   1.000
    O76     O    0.53769   0.48583   0.35272   1.000
    O77     O    0.41116   0.44343   0.45761   1.000
    Zr78    Zr   0.25000   0.24999   0.50000   1.000
    O79     O    0.16114   0.28536   0.45737   1.000
    O80     O    0.33886   0.21461   0.54263   1.000
    O81     O    0.22857   0.20883   0.51771   1.000
    O82     O    0.28775   0.19053   0.35288   1.000
    O83     O    0.27143   0.29114   0.48230   1.000
    O84     O    0.21225   0.30944   0.64712   1.000
loop_
    _geom_bond_atom_site_label_1
    _geom_bond_atom_site_label_2
    _geom_bond_distance
    _geom_bond_site_symmetry_2
    _ccdc_geom_bond_type
    Zr27   O28       1.01960      .   S
    N13    O28       1.88976      .   S
    Zr27   O29       1.01959  1_565   S
    N21    O29       1.88974      .   S
    Zr27   O30       1.87841      .   S
    N1     O30       4.44865  1_556   S
    Zr27   O31       1.87845  1_565   S
    N7     O31       4.44858  1_554   S
    Zr27   O32       1.70759  1_565   S
    N2     O32       2.20341      .   S
    Zr27   O33       1.70759      .   S
    N15    O33       2.20344      .   S
    Zr34   O35       1.70858      .   S
    N13    O35       2.20403      .   S
    Zr34   O36       1.70859      .   S
    N14    O36       2.20405      .   S
    Zr34   O37       1.87759      .   S
    N1     O37       4.44706      .   S
    Zr34   O38       1.01961      .   S
    N17    O38       1.89004      .   S
    Zr34   O39       1.01962      .   S
    N24    O39       1.89006      .   S
    Zr34   O40       1.87216      .   S
    N0     O40       4.43242      .   S
    Zr41   O42       1.70859      .   S
    N25    O42       2.20404      .   S
    Zr41   O43       1.70859      .   S
    N19    O43       2.20405      .   S
    Zr41   O44       1.01961      .   S
    N18    O44       1.89004      .   S
    Zr41   O45       1.01961      .   S
    N2     O45       1.89005      .   S
    Zr41   O46       1.87761      .   S
    N4     O46       4.44705      .   S
    Zr41   O47       1.87210      .   S
    N3     O47       4.43249      .   S
    Zr48   O49       1.01962  1_465   S
    N19    O49       1.88979      .   S
    Zr48   O50       1.01962      .   S
    N20    O50       1.88978      .   S
    Zr48   O51       1.87297  1_465   S
    N3     O51       4.43404  1_554   S
    Zr48   O52       1.87842      .   S
    N5     O52       4.44863  1_556   S
    Zr48   O53       1.70760  1_565   S
    N23    O53       2.20340      .   S
    Zr48   O54       1.35919  1_455   S
    N16    O54       1.40656      .   S
    Zr48   O55       1.70764  1_455   S
    N17    O55       2.20348      .   S
    Zr56   O57       1.35922  1_455   S
    N11    O57       1.40661      .   S
    Zr56   O58       1.70765  1_455   S
    N18    O58       2.20344      .   S
    Zr56   O59       1.01961  1_455   S
    N14    O59       1.88978      .   S
    Zr56   O60       1.01955      .   S
    N12    O60       1.88969      .   S
    Zr56   O61       1.87293  1_455   S
    N0     O61       4.43400  1_554   S
    Zr56   O62       1.87856      .   S
    N9     O62       4.44902  1_556   S
    Zr56   O63       1.70760      .   S
    N8     O63       2.20341      .   S
    Zr64   O65       1.70861      .   S
    N22    O65       2.20407      .   S
    Zr64   O66       1.70858      .   S
    N20    O66       2.20403      .   S
    Zr64   O67       1.01962      .   S
    N15    O67       1.89005      .   S
    Zr64   O68       1.87760      .   S
    N5     O68       4.44707      .   S
    Zr64   O69       1.01961      .   S
    N8     O69       1.89004      .   S
    Zr64   O70       1.87219      .   S
    N6     O70       4.43271      .   S
    Zr71   O72       1.70758      .   S
    N24    O72       2.20340      .   S
    Zr71   O73       1.01958      .   S
    N22    O73       1.88973      .   S
    Zr71   O74       1.01957      .   S
    N25    O74       1.88971      .   S
    Zr71   O75       1.87282      .   S
    N6     O75       4.43367  1_554   S
    Zr71   O76       1.87844      .   S
    N4     O76       4.44866  1_556   S
    Zr71   O77       1.70759      .   S
    N10    O77       2.20341      .   S
    Zr78   O79       1.70862      .   S
    N12    O79       2.20408      .   S
    Zr78   O80       1.70864      .   S
    N21    O80       2.20409      .   S
    Zr78   O81       1.01967      .   S
    N23    O81       1.89012      .   S
    Zr78   O82       1.87755      .   S
    N7     O82       4.44706      .   S
    Zr78   O83       1.01957      .   S
    N10    O83       1.88999      .   S
    Zr78   O84       1.87759      .   S
    N9     O84       4.44687      .   S
