# CIF file generated by openbabel 2.4.90, see http://openbabel.sf.net
data_I
_chemical_name_common ''
_cell_length_a 18.577
_cell_length_b 18.583
_cell_length_c 18.583
_cell_angle_alpha 90.001
_cell_angle_beta 90
_cell_angle_gamma 90
_space_group_name_H-M_alt 'P 1'
_space_group_name_Hall 'P 1'
loop_
    _symmetry_equiv_pos_as_xyz
    x,y,z
loop_
    _atom_site_label
    _atom_site_type_symbol
    _atom_site_fract_x
    _atom_site_fract_y
    _atom_site_fract_z
    _atom_site_occupancy
    N0      N    0.71433   0.28565   0.28564   1.000
    N1      N    0.28567   0.28567   0.71431   1.000
    N2      N    0.71433   0.71429   0.28565   1.000
    N3      N    0.28570   0.28566   0.28565   1.000
    N4      N    0.71433   0.28566   0.71427   1.000
    N5      N    0.28567   0.71436   0.71434   1.000
    N6      N    0.71431   0.71431   0.71429   1.000
    N7      N    0.28568   0.71433   0.28567   1.000
    Zr8     Zr   0.00001   0.37563   0.49997   1.000
    O9      O    0.08017   0.35305   0.56271   1.000
    O10     O    0.91984   0.35305   0.56269   1.000
    O11     O    0.08018   0.35305   0.43724   1.000
    O12     O    0.91984   0.35304   0.43724   1.000
    Zr13    Zr   0.50002   0.00002   0.62435   1.000
    O14     O    0.43728   0.91986   0.64695   1.000
    O15     O    0.56275   0.08017   0.64692   1.000
    O16     O    0.56274   0.91984   0.64693   1.000
    O17     O    0.43729   0.08018   0.64694   1.000
    Zr18    Zr   0.50002   0.99997   0.37558   1.000
    O19     O    0.43729   0.08014   0.35300   1.000
    O20     O    0.56275   0.91981   0.35300   1.000
    O21     O    0.43729   0.91982   0.35301   1.000
    O22     O    0.56275   0.08014   0.35300   1.000
    Zr23    Zr   0.62436   0.49996   0.99998   1.000
    O24     O    0.64695   0.43724   0.91980   1.000
    O25     O    0.64694   0.56270   0.91981   1.000
    O26     O    0.64695   0.56269   0.08014   1.000
    O27     O    0.64695   0.43723   0.08014   1.000
    Zr28    Zr   0.37567   0.50001   0.00000   1.000
    O29     O    0.35308   0.56274   0.08017   1.000
    O30     O    0.35307   0.56275   0.91983   1.000
    O31     O    0.35307   0.43728   0.91983   1.000
    O32     O    0.35308   0.43727   0.08016   1.000
    Zr33    Zr   0.62433   0.99997   0.49997   1.000
    O34     O    0.64693   0.08014   0.56270   1.000
    O35     O    0.64692   0.91980   0.43724   1.000
    O36     O    0.64692   0.91981   0.56270   1.000
    O37     O    0.64692   0.08014   0.43724   1.000
    Zr38    Zr   0.37573   0.00001   0.49999   1.000
    O39     O    0.35312   0.91984   0.43726   1.000
    O40     O    0.35312   0.08018   0.56272   1.000
    O41     O    0.35312   0.08017   0.43725   1.000
    O42     O    0.35312   0.91985   0.56273   1.000
    Zr43    Zr   0.00002   0.49997   0.37573   1.000
    O44     O    0.08018   0.56271   0.35312   1.000
    O45     O    0.08019   0.43724   0.35311   1.000
    O46     O    0.91984   0.56269   0.35311   1.000
    O47     O    0.91985   0.43724   0.35310   1.000
    Zr48    Zr   0.00001   0.49999   0.62424   1.000
    O49     O    0.08018   0.43726   0.64685   1.000
    O50     O    0.08017   0.56273   0.64687   1.000
    O51     O    0.91984   0.56272   0.64686   1.000
    O52     O    0.91984   0.43726   0.64684   1.000
    Zr53    Zr   0.50001   0.62433   0.00000   1.000
    O54     O    0.43727   0.64693   0.08016   1.000
    O55     O    0.56274   0.64691   0.08015   1.000
    O56     O    0.43727   0.64694   0.91984   1.000
    O57     O    0.56273   0.64692   0.91982   1.000
    Zr58    Zr   0.50000   0.37567   0.99998   1.000
    O59     O    0.56273   0.35307   0.91980   1.000
    O60     O    0.43726   0.35307   0.91982   1.000
    O61     O    0.43727   0.35307   0.08015   1.000
    O62     O    0.56273   0.35306   0.08014   1.000
    Zr63    Zr   0.00000   0.62432   0.50001   1.000
    O64     O    0.91983   0.64691   0.56273   1.000
    O65     O    0.08017   0.64692   0.43728   1.000
    O66     O    0.08017   0.64693   0.56274   1.000
    O67     O    0.91984   0.64690   0.43727   1.000
loop_
    _geom_bond_atom_site_label_1
    _geom_bond_atom_site_label_2
    _geom_bond_distance
    _geom_bond_site_symmetry_2
    _ccdc_geom_bond_type
    Zr8    O9        1.93719      .   S
    N1     O9        4.90700      .   S
    Zr8    O10       1.93719  1_455   S
    N4     O10       4.90690      .   S
    Zr8    O11       1.93725      .   S
    N3     O11       4.90714      .   S
    Zr8    O12       1.93734  1_455   S
    N0     O12       4.90729      .   S
    Zr13   O14       1.93745  1_545   S
    N5     O14       4.90762      .   S
    Zr13   O15       1.93710      .   S
    N4     O15       4.90687      .   S
    Zr13   O16       1.93739  1_545   S
    N6     O16       4.90746      .   S
    Zr13   O17       1.93735      .   S
    N1     O17       4.90743      .   S
    Zr18   O19       1.93736  1_565   S
    N3     O19       4.90748      .   S
    Zr18   O20       1.93729      .   S
    N2     O20       4.90731      .   S
    Zr18   O21       1.93724      .   S
    N7     O21       4.90715      .   S
    Zr18   O22       1.93725  1_565   S
    N0     O22       4.90728      .   S
    Zr23   O24       1.93763      .   S
    N4     O24       4.90812      .   S
    Zr23   O25       1.93774      .   S
    N6     O25       4.90823      .   S
    Zr23   O26       1.93755  1_556   S
    N2     O26       4.90779      .   S
    Zr23   O27       1.93748  1_556   S
    N0     O27       4.90763      .   S
    Zr28   O29       1.93754      .   S
    N7     O29       4.90776      .   S
    Zr28   O30       1.93771  1_554   S
    N5     O30       4.90796      .   S
    Zr28   O31       1.93772  1_554   S
    N1     O31       4.90818      .   S
    Zr28   O32       1.93761      .   S
    N3     O32       4.90791      .   S
    Zr33   O34       1.93762  1_565   S
    N4     O34       4.90783      .   S
    Zr33   O35       1.93769      .   S
    N2     O35       4.90804      .   S
    Zr33   O36       1.93758      .   S
    N6     O36       4.90779      .   S
    Zr33   O37       1.93768  1_565   S
    N0     O37       4.90808      .   S
    Zr38   O39       1.93772  1_545   S
    N7     O39       4.90815      .   S
    Zr38   O40       1.93766      .   S
    N1     O40       4.90798      .   S
    Zr38   O41       1.93762      .   S
    N3     O41       4.90795      .   S
    Zr38   O42       1.93774  1_545   S
    N5     O42       4.90814      .   S
    Zr43   O44       1.93740      .   S
    N7     O44       4.90746      .   S
    Zr43   O45       1.93735      .   S
    N3     O45       4.90730      .   S
    Zr43   O46       1.93747  1_455   S
    N2     O46       4.90755      .   S
    Zr43   O47       1.93747  1_455   S
    N0     O47       4.90755      .   S
    Zr48   O49       1.93729      .   S
    N1     O49       4.90716      .   S
    Zr48   O50       1.93746      .   S
    N5     O50       4.90756      .   S
    Zr48   O51       1.93748  1_455   S
    N6     O51       4.90748      .   S
    Zr48   O52       1.93738  1_455   S
    N4     O52       4.90732      .   S
    Zr53   O54       1.93742      .   S
    N7     O54       4.90751      .   S
    Zr53   O55       1.93724      .   S
    N2     O55       4.90714      .   S
    Zr53   O56       1.93746  1_554   S
    N5     O56       4.90763      .   S
    Zr53   O57       1.93748  1_554   S
    N6     O57       4.90779      .   S
    Zr58   O59       1.93764      .   S
    N4     O59       4.90808      .   S
    Zr58   O60       1.93737      .   S
    N1     O60       4.90750      .   S
    Zr58   O61       1.93734  1_556   S
    N3     O61       4.90737      .   S
    Zr58   O62       1.93739  1_556   S
    N0     O62       4.90751      .   S
    Zr63   O64       1.93721  1_455   S
    N6     O64       4.90693      .   S
    Zr63   O65       1.93732      .   S
    N7     O65       4.90733      .   S
    Zr63   O66       1.93728      .   S
    N5     O66       4.90722      .   S
    Zr63   O67       1.93736  1_455   S
    N2     O67       4.90736      .   S
