# CIF file generated by openbabel 2.4.90, see http://openbabel.sf.net
data_I
_chemical_name_common ''
_cell_length_a 16.158
_cell_length_b 18.104
_cell_length_c 18.807
_cell_angle_alpha 90
_cell_angle_beta 90
_cell_angle_gamma 92.615
_space_group_name_H-M_alt 'P 1'
_space_group_name_Hall 'P 1'
loop_
    _symmetry_equiv_pos_as_xyz
    x,y,z
loop_
    _atom_site_label
    _atom_site_type_symbol
    _atom_site_fract_x
    _atom_site_fract_y
    _atom_site_fract_z
    _atom_site_occupancy
    C0      C    0.73682   0.45676   0.61188   1.000
    C1      C    0.76197   0.76570   0.91781   1.000
    C2      C    0.73240   0.47415   0.41208   1.000
    C3      C    0.76078   0.78530   0.10736   1.000
    C4      C    0.74762   0.96810   0.89954   1.000
    C5      C    0.75111   0.25435   0.59353   1.000
    C6      C    0.74281   0.98543   0.09173   1.000
    C7      C    0.75032   0.27402   0.39642   1.000
    C8      C    0.28149   0.05457   0.10803   1.000
    C9      C    0.27800   0.76833   0.41403   1.000
    C10     C    0.28630   0.03724   0.91583   1.000
    C11     C    0.27880   0.74865   0.61114   1.000
    C12     C    0.29230   0.56591   0.39569   1.000
    C13     C    0.26714   0.25698   0.08976   1.000
    C14     C    0.29672   0.54853   0.59540   1.000
    C15     C    0.26834   0.23737   0.90020   1.000
