# CIF file generated by openbabel 2.4.90, see http://openbabel.sf.net
data_I
_chemical_name_common ''
_cell_length_a 14.51
_cell_length_b 19.408
_cell_length_c 26.343
_cell_angle_alpha 90
_cell_angle_beta 90.001
_cell_angle_gamma 90.002
_space_group_name_H-M_alt 'P 1'
_space_group_name_Hall 'P 1'
loop_
    _symmetry_equiv_pos_as_xyz
    x,y,z
loop_
    _atom_site_label
    _atom_site_type_symbol
    _atom_site_fract_x
    _atom_site_fract_y
    _atom_site_fract_z
    _atom_site_occupancy
    Zr0     Zr   0.19183   0.69249   0.99860   1.000
    Zr1     Zr   0.69184   0.69248   0.99860   1.000
    Zr2     Zr   0.30816   0.30754   0.49861   1.000
    Zr3     Zr   0.80816   0.30751   0.49860   1.000
    Zr4     Zr   0.44183   0.80754   0.99860   1.000
    Zr5     Zr   0.94185   0.80755   0.99860   1.000
    Zr6     Zr   0.05815   0.19248   0.49860   1.000
    Zr7     Zr   0.55816   0.19248   0.49861   1.000
    N8      N    0.52763   0.31045   0.85830   1.000
    O9      O    0.56845   0.27013   0.69547   1.000
    O10     O    0.56344   0.49712   0.92391   1.000
    O11     O    0.49048   0.09384   0.92383   1.000
    O12     O    0.40264   0.49983   0.91602   1.000
    N13     N    0.02762   0.31044   0.85829   1.000
    O14     O    0.90264   0.49983   0.91602   1.000
    O15     O    0.06844   0.27012   0.69547   1.000
    O16     O    0.99048   0.09384   0.92382   1.000
    O17     O    0.06343   0.49712   0.92390   1.000
    N18     N    0.47239   0.68958   0.35830   1.000
    O19     O    0.50953   0.90619   0.42382   1.000
    O20     O    0.59736   0.50018   0.41602   1.000
    O21     O    0.43656   0.50291   0.42391   1.000
    O22     O    0.43156   0.72990   0.19547   1.000
    N23     N    0.72249   0.81045   0.35817   1.000
    O24     O    0.84741   0.99983   0.41596   1.000
    O25     O    0.68161   0.77012   0.19541   1.000
    O26     O    0.68661   0.99711   0.42385   1.000
    O27     O    0.75958   0.59381   0.42374   1.000
    N28     N    0.77763   0.18958   0.85830   1.000
    O29     O    0.65265   0.00020   0.91602   1.000
    O30     O    0.81845   0.22989   0.69547   1.000
    O31     O    0.81345   0.00291   0.92391   1.000
    O32     O    0.74048   0.40619   0.92383   1.000
    N33     N    0.97217   0.68957   0.35816   1.000
    O34     O    0.93146   0.72990   0.19540   1.000
    O35     O    0.93645   0.50290   0.42384   1.000
    O36     O    0.00941   0.90619   0.42375   1.000
    O37     O    0.09725   0.50019   0.41595   1.000
    N38     N    0.22237   0.81044   0.35829   1.000
    O39     O    0.25951   0.59383   0.42382   1.000
    O40     O    0.18655   0.99711   0.42391   1.000
    O41     O    0.34735   0.99983   0.41602   1.000
    O42     O    0.18155   0.77012   0.19547   1.000
    N43     N    0.27759   0.18957   0.85831   1.000
    O44     O    0.31843   0.22990   0.69548   1.000
    O45     O    0.15263   0.00020   0.91602   1.000
    O46     O    0.31342   0.00291   0.92392   1.000
    O47     O    0.24046   0.40619   0.92382   1.000
    O48     O    0.76701   0.02723   0.41990   1.000
    O49     O    0.63864   0.31191   0.69724   1.000
    O50     O    0.98304   0.52724   0.91996   1.000
    O51     O    0.11138   0.81191   0.19723   1.000
    O52     O    0.23302   0.97279   0.91997   1.000
    O53     O    0.36138   0.68811   0.19723   1.000
    O54     O    0.88863   0.18810   0.69724   1.000
    O55     O    0.01685   0.47278   0.41990   1.000
    O56     O    0.13861   0.31191   0.69723   1.000
    O57     O    0.26695   0.02723   0.41997   1.000
    O58     O    0.38860   0.18811   0.69724   1.000
    O59     O    0.73305   0.97279   0.91997   1.000
    O60     O    0.86128   0.68811   0.19716   1.000
    O61     O    0.61144   0.81192   0.19717   1.000
    O62     O    0.48304   0.52724   0.91997   1.000
    O63     O    0.51696   0.47279   0.41997   1.000
loop_
    _geom_bond_atom_site_label_1
    _geom_bond_atom_site_label_2
    _geom_bond_distance
    _geom_bond_site_symmetry_2
    _ccdc_geom_bond_type
    N8     O9        4.40025      .   S
    Zr7    O9        5.40255      .   S
    N8     O10       4.04754      .   S
    Zr1    O10       4.66025      .   S
    N8     O11       4.57636      .   S
    Zr4    O11       5.93724  1_565   S
    N8     O12       4.37162      .   S
    Zr0    O12       5.29826      .   S
    N13    O14       4.37159  1_455   S
    Zr1    O14       5.29820      .   S
    N13    O15       4.40020      .   S
    Zr6    O15       5.40258      .   S
    N13    O16       4.57637  1_455   S
    Zr5    O16       5.93721  1_565   S
    N13    O17       4.04751      .   S
    Zr0    O17       4.66052      .   S
    N18    O19       4.57643      .   S
    Zr7    O19       5.93739  1_545   S
    N18    O20       4.37164      .   S
    Zr3    O20       5.29833      .   S
    N18    O21       4.04759      .   S
    Zr2    O21       4.66048      .   S
    N18    O22       4.40027      .   S
    Zr4    O22       5.40270  1_556   S
    N23    O24       4.37155      .   S
    Zr6    O24       5.29804  1_445   S
    N23    O25       4.39876      .   S
    Zr1    O25       5.40105  1_556   S
    N23    O26       4.04833      .   S
    Zr7    O26       4.66159  1_545   S
    N23    O27       4.57729      .   S
    Zr3    O27       5.93809      .   S
    N28    O29       4.37143      .   S
    Zr4    O29       5.29802  1_565   S
    N28    O30       4.40028      .   S
    Zr3    O30       5.40262      .   S
    N28    O31       4.04751      .   S
    Zr5    O31       4.66028  1_565   S
    N28    O32       4.57647      .   S
    Zr1    O32       5.93733      .   S
    N33    O34       4.39835      .   S
    Zr5    O34       5.40105  1_556   S
    N33    O35       4.04824      .   S
    Zr3    O35       4.66079      .   S
    N33    O36       4.57727  1_655   S
    Zr6    O36       5.93803  1_545   S
    N33    O37       4.37275  1_655   S
    Zr2    O37       5.29977      .   S
    N38    O39       4.57650      .   S
    Zr2    O39       5.93740      .   S
    N38    O40       4.04763      .   S
    Zr6    O40       4.66049  1_545   S
    N38    O41       4.37151      .   S
    Zr7    O41       5.29815  1_545   S
    N38    O42       4.40018      .   S
    Zr0    O42       5.40256  1_556   S
    N43    O44       4.40032      .   S
    Zr2    O44       5.40256      .   S
    N43    O45       4.37125      .   S
    Zr5    O45       5.29769  1_665   S
    N43    O46       4.04749      .   S
    Zr4    O46       4.66038  1_565   S
    N43    O47       4.57649      .   S
    Zr0    O47       5.93738      .   S
    Zr3    O48       5.85189      .   S
    N23    O48       4.55652  1_565   S
    Zr3    O49       5.78270      .   S
    N8     O49       4.53851      .   S
    Zr5    O50       5.85201      .   S
    N13    O50       4.55637  1_455   S
    Zr5    O51       5.78250  1_656   S
    N38    O51       4.53831      .   S
    Zr0    O52       5.85167      .   S
    N43    O52       4.55616  1_545   S
    Zr0    O53       5.78272  1_556   S
    N18    O53       4.53844      .   S
    Zr6    O54       5.78263  1_455   S
    N28    O54       4.53846      .   S
    Zr6    O55       5.85258      .   S
    N33    O55       4.55715  1_655   S
    Zr2    O56       5.78244      .   S
    N13    O56       4.53832      .   S
    Zr2    O57       5.85191      .   S
    N38    O57       4.55635  1_565   S
    N43    O58       4.53853      .   S
    Zr7    O58       5.78267      .   S
    Zr1    O59       5.85179      .   S
    N28    O59       4.55627  1_545   S
    Zr1    O60       5.78040  1_556   S
    N33    O60       4.53622      .   S
    Zr4    O61       5.78149  1_556   S
    N23    O61       4.53715      .   S
    Zr4    O62       5.85187      .   S
    N8     O62       4.55637      .   S
    Zr7    O63       5.85182      .   S
    N18    O63       4.55633      .   S
