# CIF file generated by openbabel 2.4.90, see http://openbabel.sf.net
data_I
_chemical_name_common ''
_cell_length_a 18.343
_cell_length_b 19.757
_cell_length_c 19.757
_cell_angle_alpha 90
_cell_angle_beta 90
_cell_angle_gamma 89.999
_space_group_name_H-M_alt 'P 1'
_space_group_name_Hall 'P 1'
loop_
    _symmetry_equiv_pos_as_xyz
    x,y,z
loop_
    _atom_site_label
    _atom_site_type_symbol
    _atom_site_fract_x
    _atom_site_fract_y
    _atom_site_fract_z
    _atom_site_occupancy
    H0      H    0.33185   0.88389   0.00697   1.000
    H1      H    0.83184   0.88389   0.00697   1.000
    H2      H    0.37889   0.80953   0.03150   1.000
    H3      H    0.87889   0.80953   0.03150   1.000
    H4      H    0.23642   0.79318   0.03740   1.000
    H5      H    0.73641   0.79318   0.03740   1.000
    H6      H    0.21620   0.73311   0.97397   1.000
    H7      H    0.71620   0.73311   0.97397   1.000
    H8      H    0.22240   0.86561   0.92957   1.000
    H9      H    0.72240   0.86561   0.92957   1.000
    H10     H    0.29823   0.86654   0.87392   1.000
    H11     H    0.79823   0.86653   0.87392   1.000
    H12     H    0.45665   0.89725   0.97257   1.000
    H13     H    0.95665   0.89725   0.97257   1.000
    H14     H    0.40440   0.88462   0.89842   1.000
    H15     H    0.90439   0.88462   0.89842   1.000
    H16     H    0.05406   0.78362   0.85246   1.000
    H17     H    0.55405   0.78362   0.85246   1.000
    H18     H    0.04016   0.87007   0.86784   1.000
    H19     H    0.54015   0.87007   0.86784   1.000
    H20     H    0.98728   0.77542   0.02443   1.000
    H21     H    0.48728   0.77543   0.02443   1.000
    H22     H    0.06298   0.81624   0.98696   1.000
    H23     H    0.56297   0.81624   0.98696   1.000
    H24     H    0.33186   0.11613   0.99304   1.000
    H25     H    0.83186   0.11613   0.99304   1.000
    H26     H    0.37890   0.19049   0.96844   1.000
    H27     H    0.87889   0.19049   0.96844   1.000
    H28     H    0.23643   0.20684   0.96254   1.000
    H29     H    0.73642   0.20684   0.96254   1.000
    H30     H    0.21620   0.26691   0.02605   1.000
    H31     H    0.71620   0.26691   0.02604   1.000
    H32     H    0.22241   0.13441   0.07044   1.000
    H33     H    0.72240   0.13441   0.07040   1.000
    H34     H    0.29824   0.13349   0.12609   1.000
    H35     H    0.79823   0.13349   0.12609   1.000
    H36     H    0.45666   0.10277   0.02744   1.000
    H37     H    0.95665   0.10277   0.02744   1.000
    H38     H    0.40440   0.11540   0.10159   1.000
    H39     H    0.90439   0.11540   0.10159   1.000
    H40     H    0.05406   0.21640   0.14754   1.000
    H41     H    0.55405   0.21640   0.14750   1.000
    H42     H    0.04016   0.12995   0.13217   1.000
    H43     H    0.54016   0.12995   0.13217   1.000
    H44     H    0.98729   0.22460   0.97558   1.000
    H45     H    0.48729   0.22460   0.97558   1.000
    H46     H    0.06298   0.18378   0.01305   1.000
    H47     H    0.56297   0.18378   0.01305   1.000
    H48     H    0.33186   0.99305   0.88389   1.000
    H49     H    0.83185   0.99305   0.88389   1.000
    H50     H    0.37890   0.96844   0.80953   1.000
    H51     H    0.87889   0.96844   0.80950   1.000
    H52     H    0.23642   0.96254   0.79317   1.000
    H53     H    0.73641   0.96254   0.79318   1.000
    H54     H    0.21620   0.02605   0.73311   1.000
    H55     H    0.71620   0.02605   0.73310   1.000
    H56     H    0.22241   0.07045   0.86560   1.000
    H57     H    0.72241   0.07045   0.86560   1.000
    H58     H    0.29824   0.12609   0.86653   1.000
    H59     H    0.79823   0.12609   0.86653   1.000
    H60     H    0.45666   0.02744   0.89725   1.000
    H61     H    0.95665   0.02744   0.89725   1.000
    H62     H    0.40440   0.10160   0.88462   1.000
    H63     H    0.90440   0.10159   0.88462   1.000
    H64     H    0.05407   0.14755   0.78362   1.000
    H65     H    0.55405   0.14755   0.78362   1.000
    H66     H    0.04016   0.13218   0.87006   1.000
    H67     H    0.54016   0.13217   0.87006   1.000
    H68     H    0.81297   0.51307   0.68379   1.000
    H69     H    0.08186   0.50699   0.38388   1.000
    H70     H    0.58185   0.50699   0.38388   1.000
    H71     H    0.12890   0.53159   0.30950   1.000
    H72     H    0.98729   0.97558   0.77542   1.000
    H73     H    0.48728   0.97558   0.77542   1.000
    H74     H    0.06299   0.01306   0.81623   1.000
    H75     H    0.56298   0.01306   0.81623   1.000
    H76     H    0.33186   0.00698   0.11610   1.000
    H77     H    0.83185   0.00698   0.11612   1.000
    H78     H    0.37890   0.03158   0.19040   1.000
    H79     H    0.87889   0.03158   0.19040   1.000
    H80     H    0.23643   0.03748   0.20684   1.000
    H81     H    0.73642   0.03748   0.20684   1.000
    H82     H    0.21619   0.97397   0.26691   1.000
    H83     H    0.71619   0.97397   0.26691   1.000
    H84     H    0.22240   0.92957   0.13441   1.000
    H85     H    0.72239   0.92958   0.13441   1.000
    H86     H    0.29823   0.87393   0.13348   1.000
    H87     H    0.79822   0.87393   0.13348   1.000
    H88     H    0.45665   0.97258   0.10276   1.000
    H89     H    0.95664   0.97258   0.10276   1.000
    H90     H    0.40439   0.89843   0.11539   1.000
    H91     H    0.90439   0.89843   0.11539   1.000
    H92     H    0.05405   0.85247   0.21639   1.000
    H93     H    0.55405   0.85247   0.21639   1.000
    H94     H    0.04016   0.86785   0.12995   1.000
    H95     H    0.54015   0.86785   0.12995   1.000
    H96     H    0.98729   0.02444   0.22459   1.000
    H97     H    0.48728   0.02444   0.22459   1.000
    H98     H    0.06297   0.98696   0.18378   1.000
    H99     H    0.56296   0.98696   0.18378   1.000
    C100    C    0.01121   0.17880   0.13830   1.000
    C101    C    0.51121   0.17880   0.13834   1.000
    C102    C    0.01862   0.22070   0.02280   1.000
    H103    H    0.08186   0.38388   0.49303   1.000
    H104    H    0.58185   0.38388   0.49303   1.000
    H105    H    0.12890   0.30952   0.46843   1.000
    H106    H    0.62890   0.30952   0.46843   1.000
    H107    H    0.48642   0.29317   0.46253   1.000
    H108    H    0.98642   0.29317   0.46253   1.000
    H109    H    0.46620   0.23310   0.52600   1.000
    H110    H    0.96619   0.23310   0.52605   1.000
    H111    H    0.47240   0.36560   0.57045   1.000
    H112    H    0.97240   0.36560   0.57045   1.000
    H113    H    0.04824   0.36653   0.62610   1.000
    H114    H    0.54823   0.36652   0.62610   1.000
    H115    H    0.20666   0.39724   0.52745   1.000
    H116    H    0.70665   0.39724   0.52745   1.000
    H117    H    0.15440   0.38461   0.60160   1.000
    H118    H    0.65440   0.38461   0.60160   1.000
    H119    H    0.30406   0.28361   0.64750   1.000
    H120    H    0.80405   0.28361   0.64755   1.000
    H121    H    0.29016   0.37006   0.63218   1.000
    H122    H    0.79015   0.37006   0.63218   1.000
    H123    H    0.23729   0.27542   0.47557   1.000
    H124    H    0.73728   0.27541   0.47557   1.000
    H125    H    0.31298   0.31623   0.51306   1.000
    H126    H    0.81297   0.31623   0.51306   1.000
    H127    H    0.08186   0.61614   0.50698   1.000
    H128    H    0.58185   0.61614   0.50698   1.000
    H129    H    0.12890   0.69050   0.53150   1.000
    H130    H    0.62889   0.69050   0.53150   1.000
    H131    H    0.48642   0.70685   0.53740   1.000
    H132    H    0.98641   0.70685   0.53748   1.000
    H133    H    0.46619   0.76692   0.47396   1.000
    H134    H    0.96620   0.76693   0.47396   1.000
    H135    H    0.47240   0.63442   0.42956   1.000
    H136    H    0.97239   0.63442   0.42956   1.000
    H137    H    0.04823   0.63350   0.37391   1.000
    H138    H    0.54823   0.63350   0.37391   1.000
    H139    H    0.20666   0.60278   0.47256   1.000
    H140    H    0.70665   0.60278   0.47256   1.000
    H141    H    0.15440   0.61541   0.39841   1.000
    H142    H    0.65440   0.61541   0.39841   1.000
    H143    H    0.30406   0.71641   0.35246   1.000
    H144    H    0.80405   0.71641   0.35245   1.000
    H145    H    0.29015   0.62996   0.36780   1.000
    H146    H    0.79015   0.62996   0.36783   1.000
    H147    H    0.23728   0.72461   0.52444   1.000
    H148    H    0.73728   0.72461   0.52444   1.000
    H149    H    0.31297   0.68379   0.48695   1.000
    H150    H    0.81297   0.68379   0.48695   1.000
    H151    H    0.08186   0.49304   0.61610   1.000
    H152    H    0.58185   0.49304   0.61610   1.000
    H153    H    0.12890   0.46843   0.69050   1.000
    H154    H    0.62889   0.46843   0.69050   1.000
    H155    H    0.48642   0.46253   0.70685   1.000
    H156    H    0.98641   0.46253   0.70684   1.000
    H157    H    0.46620   0.52606   0.76692   1.000
    H158    H    0.96620   0.52605   0.76692   1.000
    H159    H    0.47240   0.57046   0.63442   1.000
    H160    H    0.97239   0.57046   0.63442   1.000
    H161    H    0.04824   0.62610   0.63349   1.000
    H162    H    0.54823   0.62610   0.63349   1.000
    H163    H    0.20666   0.52745   0.60277   1.000
    H164    H    0.70665   0.52745   0.60277   1.000
    H165    H    0.15440   0.60160   0.61540   1.000
    H166    H    0.65440   0.60161   0.61540   1.000
    H167    H    0.30406   0.64755   0.71640   1.000
    H168    H    0.80405   0.64756   0.71640   1.000
    H169    H    0.29015   0.63219   0.62996   1.000
    H170    H    0.79015   0.63219   0.62996   1.000
    H171    H    0.23728   0.47557   0.72460   1.000
    H172    H    0.73728   0.47557   0.72460   1.000
    H173    H    0.31298   0.51307   0.68379   1.000
    N174    N    0.80724   0.95115   0.20597   1.000
    N175    N    0.47013   0.92241   0.19795   1.000
    N176    N    0.97012   0.92241   0.19795   1.000
    N177    N    0.05726   0.29403   0.54880   1.000
    N178    N    0.55726   0.29403   0.54887   1.000
    N179    N    0.22014   0.30206   0.57761   1.000
    N180    N    0.72013   0.30206   0.57761   1.000
    N181    N    0.05726   0.70598   0.45114   1.000
    H182    H    0.62889   0.53159   0.30950   1.000
    H183    H    0.48642   0.53749   0.29316   1.000
    H184    H    0.98641   0.53749   0.29316   1.000
    H185    H    0.46620   0.47396   0.23300   1.000
    H186    H    0.96619   0.47396   0.23300   1.000
    H187    H    0.47240   0.42956   0.36559   1.000
    H188    H    0.97240   0.42956   0.36559   1.000
    H189    H    0.04824   0.37392   0.36652   1.000
    H190    H    0.54823   0.37392   0.36652   1.000
    H191    H    0.20666   0.47257   0.39724   1.000
    H192    H    0.70665   0.47257   0.39724   1.000
    H193    H    0.15440   0.39842   0.38461   1.000
    H194    H    0.65440   0.39842   0.38461   1.000
    H195    H    0.30405   0.35246   0.28361   1.000
    H196    H    0.80405   0.35246   0.28361   1.000
    H197    H    0.29016   0.36784   0.37005   1.000
    H198    H    0.79015   0.36784   0.37005   1.000
    H199    H    0.23728   0.52445   0.27541   1.000
    H200    H    0.73728   0.52445   0.27541   1.000
    H201    H    0.31297   0.48695   0.31622   1.000
    H202    H    0.81297   0.48695   0.31622   1.000
    C203    C    0.35939   0.83783   0.98729   1.000
    C204    C    0.85938   0.83784   0.98729   1.000
    C205    C    0.26151   0.75811   0.00000   1.000
    C206    C    0.76150   0.75812   0.00000   1.000
    C207    C    0.26259   0.83290   0.90320   1.000
    C208    C    0.76258   0.83290   0.90320   1.000
    C209    C    0.42416   0.85919   0.94424   1.000
    C210    C    0.92415   0.85919   0.94424   1.000
    C211    C    0.01121   0.82123   0.86167   1.000
    C212    C    0.51121   0.82123   0.86167   1.000
    C213    C    0.01862   0.77932   0.97720   1.000
    C214    C    0.51861   0.77932   0.97720   1.000
    C215    C    0.35939   0.16219   0.01273   1.000
    C216    C    0.85939   0.16219   0.01270   1.000
    C217    C    0.26151   0.24191   0.99961   1.000
    C218    C    0.76150   0.24191   0.99961   1.000
    C219    C    0.26259   0.16712   0.09673   1.000
    C220    C    0.76258   0.16712   0.09673   1.000
    C221    C    0.42416   0.14083   0.05577   1.000
    C222    C    0.92415   0.14083   0.05577   1.000
    C223    C    0.51861   0.22071   0.02281   1.000
    C224    C    0.35940   0.01273   0.83783   1.000
    C225    C    0.85939   0.01273   0.83783   1.000
    C226    C    0.26151   0.99961   0.75811   1.000
    C227    C    0.76151   0.99961   0.75811   1.000
    C228    C    0.26259   0.09673   0.83290   1.000
    C229    C    0.76259   0.09673   0.83290   1.000
    C230    C    0.42416   0.05578   0.85919   1.000
    C231    C    0.92416   0.05578   0.85910   1.000
    C232    C    0.01122   0.13835   0.82122   1.000
    C233    C    0.51121   0.13835   0.82122   1.000
    C234    C    0.01862   0.02281   0.77931   1.000
    C235    C    0.51862   0.02281   0.77931   1.000
    C236    C    0.35938   0.98729   0.16218   1.000
    C237    C    0.85937   0.98729   0.16218   1.000
    C238    C    0.26150   0.00000   0.24190   1.000
    C239    C    0.76150   0.00000   0.24190   1.000
    C240    C    0.26258   0.90329   0.16710   1.000
    C241    C    0.76257   0.90329   0.16711   1.000
    C242    C    0.42415   0.94424   0.14080   1.000
    C243    C    0.92414   0.94425   0.14080   1.000
    C244    C    0.01121   0.86167   0.17879   1.000
    C245    C    0.51120   0.86167   0.17879   1.000
    C246    C    0.01861   0.97721   0.22070   1.000
    C247    C    0.51860   0.97721   0.22070   1.000
    C248    C    0.10939   0.33783   0.51274   1.000
    C249    C    0.60939   0.33783   0.51274   1.000
    C250    C    0.01151   0.25811   0.49962   1.000
    C251    C    0.51151   0.25810   0.49962   1.000
    C252    C    0.01259   0.33289   0.59674   1.000
    C253    C    0.51259   0.33289   0.59674   1.000
    C254    C    0.17416   0.35918   0.55578   1.000
    C255    C    0.67416   0.35918   0.55578   1.000
    C256    C    0.26121   0.32121   0.63835   1.000
    C257    C    0.76121   0.32121   0.63830   1.000
    C258    C    0.26861   0.27931   0.52280   1.000
    C259    C    0.76861   0.27931   0.52282   1.000
    C260    C    0.10939   0.66219   0.48728   1.000
    C261    C    0.60939   0.66220   0.48720   1.000
    C262    C    0.01151   0.74191   0.50040   1.000
    C263    C    0.51150   0.74192   0.50039   1.000
    C264    C    0.01259   0.66713   0.40327   1.000
    C265    C    0.51258   0.66713   0.40327   1.000
    C266    C    0.17416   0.64084   0.44423   1.000
    C267    C    0.67415   0.64084   0.44423   1.000
    C268    C    0.26121   0.67881   0.36160   1.000
    C269    C    0.76120   0.67881   0.36166   1.000
    C270    C    0.26861   0.72071   0.47720   1.000
    C271    C    0.76861   0.72072   0.47719   1.000
    C272    C    0.10940   0.51274   0.66219   1.000
    C273    C    0.60939   0.51274   0.66219   1.000
    C274    C    0.01152   0.49962   0.74191   1.000
    C275    C    0.51151   0.49962   0.74191   1.000
    C276    C    0.01259   0.59674   0.66713   1.000
    C277    C    0.51258   0.59674   0.66713   1.000
    C278    C    0.17416   0.55579   0.64084   1.000
    C279    C    0.67416   0.55579   0.64084   1.000
    C280    C    0.26121   0.63836   0.67880   1.000
    C281    C    0.76120   0.63836   0.67880   1.000
    C282    C    0.26861   0.52282   0.72071   1.000
    C283    C    0.76861   0.52282   0.72071   1.000
    C284    C    0.10939   0.48728   0.33782   1.000
    C285    C    0.60938   0.48728   0.33782   1.000
    C286    C    0.01151   0.50040   0.25810   1.000
    C287    C    0.51150   0.50040   0.25810   1.000
    C288    C    0.01259   0.40328   0.33289   1.000
    C289    C    0.51258   0.40328   0.33289   1.000
    C290    C    0.17416   0.44424   0.35918   1.000
    C291    C    0.67415   0.44424   0.35918   1.000
    C292    C    0.26121   0.36166   0.32121   1.000
    C293    C    0.76120   0.36166   0.32121   1.000
    C294    C    0.26861   0.47720   0.27930   1.000
    C295    C    0.76861   0.47720   0.27930   1.000
    N296    N    0.30726   0.79404   0.95115   1.000
    N297    N    0.80725   0.79404   0.95115   1.000
    N298    N    0.47013   0.80207   0.92241   1.000
    N299    N    0.97012   0.80207   0.92241   1.000
    N300    N    0.30726   0.20598   0.04886   1.000
    N301    N    0.80725   0.20598   0.04886   1.000
    N302    N    0.47013   0.19795   0.07760   1.000
    N303    N    0.97013   0.19796   0.07760   1.000
    N304    N    0.30726   0.04887   0.79404   1.000
    N305    N    0.80726   0.04887   0.79404   1.000
    N306    N    0.47014   0.07761   0.80206   1.000
    N307    N    0.97013   0.07761   0.80206   1.000
    N308    N    0.30725   0.95115   0.20597   1.000
    N309    N    0.55725   0.70599   0.45114   1.000
    N310    N    0.22013   0.69797   0.42240   1.000
    N311    N    0.72013   0.69796   0.42240   1.000
    N312    N    0.05726   0.54888   0.70598   1.000
    N313    N    0.55726   0.54888   0.70598   1.000
    N314    N    0.22013   0.57762   0.69796   1.000
    N315    N    0.72013   0.57762   0.69796   1.000
    N316    N    0.05726   0.45114   0.29403   1.000
    N317    N    0.55725   0.45114   0.29403   1.000
    N318    N    0.22013   0.42240   0.30205   1.000
    N319    N    0.72013   0.42240   0.30205   1.000
loop_
    _geom_bond_atom_site_label_1
    _geom_bond_atom_site_label_2
    _geom_bond_distance
    _geom_bond_site_symmetry_2
    _ccdc_geom_bond_type
    C206   H5        1.11255      .   S
    C206   N297      1.46271  1_554   S
    C206   H7        1.09508  1_554   S
    C205   H4        1.11253      .   S
    C205   N296      1.46272  1_554   S
    C205   H6        1.09507  1_554   S
    H1     C204      1.11100  1_554   S
    H0     C203      1.11100  1_554   S
    C216   N301      1.47423      .   S
    C216   C222      1.52105      .   S
    C216   H27       1.09795  1_554   S
    C216   H25       1.11078  1_554   S
    C215   N300      1.47394      .   S
    C215   C221      1.52073      .   S
    C215   H26       1.09842  1_554   S
    C215   H24       1.11098  1_554   S
    H47    C223      1.10971      .   S
    H46    C102      1.10967      .   S
    C102   N303      1.47151  1_455   S
    C102   H44       1.09836  1_454   S
    C223   N302      1.47125      .   S
    C223   H45       1.09853  1_554   S
    H20    C213      1.09863  1_654   S
    H21    C214      1.09863  1_554   S
    H31    C218      1.09881  1_554   S
    H30    C217      1.09889  1_554   S
    H37    C222      1.11089      .   S
    H36    C221      1.11090      .   S
    H3     C204      1.09711  1_554   S
    H2     C203      1.09710  1_554   S
    N300   C219      1.46808      .   S
    N300   C217      1.46799  1_554   S
    N301   C220      1.46805      .   S
    N301   C218      1.46798  1_554   S
    C222   N303      1.47338      .   S
    C222   H39       1.09699      .   S
    C221   N302      1.47338      .   S
    C221   H38       1.09697      .   S
    H33    C220      1.10971      .   S
    H32    C219      1.10934      .   S
    N303   C100      1.46612  1_655   S
    N302   C101      1.46664      .   S
    C219   H34       1.09799      .   S
    C220   H35       1.09799      .   S
    H88    C242      1.11066      .   S
    H89    C243      1.11065      .   S
    H90    C242      1.09672      .   S
    H91    C243      1.09672      .   S
    H76    C236      1.11130  1_545   S
    H77    C237      1.11097  1_545   S
    H95    C245      1.10812      .   S
    H94    C244      1.10814      .   S
    H43    C101      1.10820      .   S
    H42    C100      1.10813      .   S
    H86    C240      1.09783      .   S
    H87    C241      1.09797      .   S
    H84    C240      1.10909      .   S
    H85    C241      1.10921      .   S
    C100   H40       1.09677      .   S
    C101   H41       1.09649      .   S
    C242   C236      1.52092      .   S
    C242   N175      1.47379      .   S
    C243   C237      1.52091      .   S
    C243   N176      1.47382      .   S
    C237   H79       1.09760  1_565   S
    C237   N174      1.47400      .   S
    C236   H78       1.09759  1_565   S
    C236   N308      1.47400      .   S
    C240   N308      1.46810      .   S
    C241   N174      1.46799      .   S
    C245   N175      1.46666      .   S
    C245   H93       1.09661      .   S
    C244   N176      1.46677  1_455   S
    C244   H92       1.09660      .   S
    H98    C246      1.10965      .   S
    H99    C247      1.10965      .   S
    N175   C247      1.47136      .   S
    N176   C246      1.47151  1_655   S
    N174   C239      1.46272  1_565   S
    N308   C238      1.46273  1_565   S
    H81    C239      1.11343      .   S
    H80    C238      1.11340      .   S
    C246   H96       1.09844  1_465   S
    C247   H97       1.09844  1_565   S
    H186   C286      1.09992  1_655   S
    H185   C287      1.09974      .   S
    C238   H82       1.09512  1_545   S
    C239   H83       1.09508  1_545   S
    C287   H183      1.10838      .   S
    C287   N317      1.46808      .   S
    C286   H184      1.10847  1_455   S
    C286   N316      1.46809      .   S
    H199   C294      1.09887      .   S
    H200   C295      1.09887      .   S
    C294   N318      1.47135      .   S
    C294   H201      1.10966      .   S
    C295   N319      1.47134      .   S
    C295   H202      1.10966      .   S
    H196   C293      1.09662      .   S
    H195   C292      1.09659      .   S
    N317   C289      1.46800      .   S
    N317   C285      1.47400      .   S
    N316   C288      1.46799      .   S
    N316   C284      1.47400      .   S
    N319   C293      1.46666      .   S
    N319   C291      1.47350      .   S
    N318   C292      1.46666      .   S
    N318   C290      1.47351      .   S
    H182   C285      1.09886      .   S
    H71    C284      1.09887      .   S
    C292   H197      1.10814      .   S
    C293   H198      1.10812      .   S
    C289   H187      1.10919      .   S
    C289   H190      1.09798      .   S
    C288   H188      1.10936  1_455   S
    C288   H189      1.09796      .   S
    C284   C290      1.52080      .   S
    C284   H69       1.11118      .   S
    C285   C291      1.52081      .   S
    C285   H70       1.11118      .   S
    H144   C269      1.09666      .   S
    H143   C268      1.09645      .   S
    C290   H193      1.09690      .   S
    C290   H191      1.11092      .   S
    C291   H194      1.09691      .   S
    C291   H192      1.11091      .   S
    C268   H145      1.10829      .   S
    C268   N310      1.46760      .   S
    C269   H146      1.10820      .   S
    C269   N311      1.46664      .   S
    H138   C265      1.09798      .   S
    H137   C264      1.09799      .   S
    H142   C267      1.09698      .   S
    H141   C266      1.09700      .   S
    C265   H135      1.10935      .   S
    C265   N309      1.46808      .   S
    C264   H136      1.10948  1_455   S
    C264   N181      1.46805      .   S
    N310   C266      1.47339      .   S
    N310   C270      1.47135      .   S
    N311   C267      1.47338      .   S
    N311   C271      1.47126      .   S
    C267   H140      1.11090      .   S
    C267   C261      1.51994      .   S
    C266   H139      1.11090      .   S
    C266   C260      1.52080      .   S
    N309   C261      1.47330      .   S
    N309   C263      1.46798      .   S
    N181   C260      1.47403      .   S
    N181   C262      1.46806      .   S
    H107   C251      1.10845      .   S
    H108   C250      1.10854  1_655   S
    H105   C248      1.09871      .   S
    H106   C249      1.09870      .   S
    H134   C262      1.09912  1_655   S
    H133   C263      1.09880      .   S
    H124   C259      1.09891      .   S
    H123   C258      1.09858      .   S
    C271   H150      1.10970      .   S
    C271   H148      1.09891      .   S
    C270   H149      1.10968      .   S
    C270   H147      1.09875      .   S
    C261   H128      1.11165      .   S
    C261   H130      1.09854      .   S
    C260   H127      1.11111      .   S
    C260   H129      1.09731      .   S
    H103   C248      1.11116      .   S
    H104   C249      1.11117      .   S
    C250   H110      1.09899  1_455   S
    C250   N177      1.46705      .   S
    C251   H109      1.09833      .   S
    C251   N178      1.46797      .   S
    C263   H131      1.10737      .   S
    C262   H132      1.10848  1_455   S
    C248   N177      1.47327      .   S
    C248   C254      1.52072      .   S
    C249   N178      1.47396      .   S
    C249   C255      1.52072      .   S
    H125   C258      1.10962      .   S
    H126   C259      1.10970      .   S
    C258   N179      1.47154      .   S
    C259   N180      1.47124      .   S
    H116   C255      1.11089      .   S
    H115   C254      1.11092      .   S
    N177   C252      1.46896      .   S
    N178   C253      1.46807      .   S
    C255   N180      1.47339      .   S
    C255   H118      1.09698      .   S
    C254   N179      1.47337      .   S
    C254   H117      1.09697      .   S
    H111   C253      1.10934      .   S
    H112   C252      1.10950  1_655   S
    N179   C256      1.46665      .   S
    N180   C257      1.46584      .   S
    C252   H113      1.09799      .   S
    C253   H114      1.09798      .   S
    H163   C278      1.11101      .   S
    H164   C279      1.11103      .   S
    H165   C278      1.09699      .   S
    H166   C279      1.09699      .   S
    H151   C272      1.11172      .   S
    H152   C273      1.11170      .   S
    H170   C281      1.10811      .   S
    H169   C280      1.10807      .   S
    H121   C256      1.10820      .   S
    H122   C257      1.10809      .   S
    H162   C277      1.09806      .   S
    H161   C276      1.09804      .   S
    H160   C276      1.10948  1_655   S
    H159   C277      1.10931      .   S
    C257   H120      1.09681      .   S
    C256   H119      1.09645      .   S
    C279   C273      1.52079      .   S
    C279   N315      1.47331      .   S
    C278   C272      1.52077      .   S
    C278   N314      1.47332      .   S
    C272   H153      1.09872      .   S
    C272   N312      1.47402      .   S
    C273   H154      1.09874      .   S
    C273   N313      1.47401      .   S
    C276   N312      1.46796      .   S
    C277   N313      1.46793      .   S
    C281   N315      1.46667      .   S
    C281   H168      1.09661      .   S
    C280   N314      1.46667      .   S
    C280   H167      1.09665      .   S
    H173   C282      1.10966      .   S
    H68    C283      1.10965      .   S
    N315   C283      1.47139      .   S
    N314   C282      1.47138      .   S
    N312   C274      1.46807      .   S
    N313   C275      1.46807      .   S
    H156   C274      1.10859  1_655   S
    H155   C275      1.10837      .   S
    C282   H171      1.09887      .   S
    C283   H172      1.09885      .   S
    H55    C227      1.09889  1_545   S
    H54    C226      1.09890  1_545   S
    C275   H157      1.09892      .   S
    C274   H158      1.09901  1_455   S
    C226   H52       1.10817      .   S
    C226   N304      1.46809  1_565   S
    C227   H53       1.10829      .   S
    C227   N305      1.46807  1_565   S
    H73    C235      1.09863  1_565   S
    H72    C234      1.09861  1_665   S
    C235   N306      1.47133      .   S
    C235   H75       1.10965      .   S
    C234   N307      1.47151  1_455   S
    C234   H74       1.10967      .   S
    H65    C233      1.09658      .   S
    H64    C232      1.09664      .   S
    N304   C228      1.46798      .   S
    N304   C224      1.47401      .   S
    N305   C229      1.46805      .   S
    N305   C225      1.47402      .   S
    N306   C233      1.46666      .   S
    N306   C230      1.47349      .   S
    N307   C232      1.46678  1_655   S
    N307   C231      1.47212      .   S
    H51    C225      1.09856  1_565   S
    H50    C224      1.09829  1_565   S
    C232   H66       1.10809      .   S
    C233   H67       1.10817      .   S
    C228   H56       1.10921      .   S
    C228   H58       1.09796      .   S
    C229   H57       1.10919      .   S
    C229   H59       1.09794      .   S
    C225   C231      1.52033      .   S
    C225   H49       1.11115  1_545   S
    C224   C230      1.52080      .   S
    C224   H48       1.11111  1_545   S
    H16    C211      1.09665      .   S
    H17    C212      1.09664      .   S
    C231   H63       1.09771      .   S
    C231   H61       1.11210      .   S
    C230   H62       1.09691      .   S
    C230   H60       1.11093      .   S
    C212   H19       1.10820      .   S
    C212   N298      1.46664      .   S
    C211   H18       1.10821      .   S
    C211   N299      1.46677  1_455   S
    H10    C207      1.09715      .   S
    H11    C208      1.09713      .   S
    H14    C209      1.09696      .   S
    H15    C210      1.09696      .   S
    C208   H9        1.11008      .   S
    C208   N297      1.46911      .   S
    C207   H8        1.11007      .   S
    C207   N296      1.46911      .   S
    N298   C209      1.47338      .   S
    N298   C214      1.47125      .   S
    N299   C210      1.47337      .   S
    N299   C213      1.47141  1_655   S
    C210   H13       1.11092      .   S
    C210   C204      1.52084      .   S
    C209   H12       1.11092      .   S
    C209   C203      1.52084      .   S
    N297   C204      1.47403      .   S
    N296   C203      1.47405      .   S
    H29    C218      1.10816      .   S
    H28    C217      1.10811      .   S
    C214   H23       1.10970      .   S
    C213   H22       1.10970      .   S
