# CIF file generated by openbabel 2.4.90, see http://openbabel.sf.net
data_I
_chemical_name_common ''
_cell_length_a 20.365
_cell_length_b 17.894
_cell_length_c 19.845
_cell_angle_alpha 90.021
_cell_angle_beta 90.013
_cell_angle_gamma 89.977
_space_group_name_H-M_alt 'P 1'
_space_group_name_Hall 'P 1'
loop_
    _symmetry_equiv_pos_as_xyz
    x,y,z
loop_
    _atom_site_label
    _atom_site_type_symbol
    _atom_site_fract_x
    _atom_site_fract_y
    _atom_site_fract_z
    _atom_site_occupancy
    C0      C    0.61580   0.71850   0.87051   1.000
    C1      C    0.11559   0.78004   0.63040   1.000
    C2      C    0.61574   0.78143   0.62947   1.000
    C3      C    0.11573   0.71880   0.87063   1.000
    O4      O    0.32348   0.75223   0.83175   1.000
    O5      O    0.82265   0.75313   0.83090   1.000
    O6      O    0.42531   0.79396   0.85277   1.000
    O7      O    0.92477   0.79368   0.85266   1.000
    O8      O    0.32297   0.74705   0.66912   1.000
    C9      C    0.13415   0.21865   0.12936   1.000
    C10     C    0.63433   0.21864   0.12948   1.000
    C11     C    0.13410   0.28130   0.37068   1.000
    C12     C    0.63457   0.28146   0.37040   1.000
    C13     C    0.38456   0.22094   0.37049   1.000
    C14     C    0.88436   0.21852   0.37049   1.000
    C15     C    0.38436   0.28144   0.12955   1.000
    C16     C    0.88436   0.28139   0.12947   1.000
    C17     C    0.36645   0.78112   0.87108   1.000
    C18     C    0.86569   0.78136   0.87056   1.000
    C19     C    0.36592   0.71870   0.62944   1.000
    C20     C    0.86564   0.71859   0.62945   1.000
    O21     O    0.07251   0.75041   0.66920   1.000
    O22     O    0.57269   0.75317   0.66900   1.000
    O23     O    0.17425   0.79326   0.64932   1.000
    O24     O    0.67482   0.79371   0.64741   1.000
    O25     O    0.07260   0.74697   0.83104   1.000
    O26     O    0.57271   0.74677   0.83093   1.000
    O27     O    0.17482   0.70654   0.85269   1.000
    O28     O    0.67489   0.70625   0.85250   1.000
    O29     O    0.17716   0.24696   0.16900   1.000
    O30     O    0.67740   0.24685   0.16911   1.000
    O31     O    0.07512   0.20621   0.14730   1.000
    O32     O    0.57527   0.20630   0.14741   1.000
    O33     O    0.17712   0.25294   0.33109   1.000
    O34     O    0.67752   0.25308   0.33082   1.000
    O35     O    0.07505   0.29375   0.35268   1.000
    O36     O    0.57548   0.29387   0.35262   1.000
    O37     O    0.42750   0.24955   0.33098   1.000
    O38     O    0.92738   0.24680   0.33089   1.000
    O39     O    0.32541   0.20893   0.35264   1.000
    O40     O    0.82527   0.20624   0.35256   1.000
    O41     O    0.42744   0.25313   0.16910   1.000
    O42     O    0.92740   0.25317   0.16910   1.000
    O43     O    0.32528   0.29375   0.14751   1.000
    O44     O    0.82526   0.29371   0.14735   1.000
    O45     O    0.82259   0.74683   0.66909   1.000
    O46     O    0.42500   0.70623   0.64731   1.000
    O47     O    0.92470   0.70617   0.64739   1.000
loop_
    _geom_bond_atom_site_label_1
    _geom_bond_atom_site_label_2
    _geom_bond_distance
    _geom_bond_site_symmetry_2
    _ccdc_geom_bond_type
    C9     O31       1.27371      .   S
    C9     O29       1.28155      .   S
    C16    O44       1.27391      .   S
    C16    O42       1.28123      .   S
    C10    O32       1.27384      .   S
    C10    O30       1.28156      .   S
    C15    O43       1.27398      .   S
    C15    O41       1.28151      .   S
    O34    C12       1.28045      .   S
    O38    C14       1.28156      .   S
    O37    C13       1.28156      .   S
    O33    C11       1.28144      .   S
    O40    C14       1.27389      .   S
    O36    C12       1.27337      .   S
    O39    C13       1.27384      .   S
    O35    C11       1.27397      .   S
    C19    O46       1.27373      .   S
    C19    O8        1.28150      .   S
    C20    O47       1.27371      .   S
    C20    O45       1.28160      .   S
    C2     O24       1.27379      .   S
    C2     O22       1.28091      .   S
    C1     O23       1.27442      .   S
    C1     O21       1.28249      .   S
    O5     C18       1.28168      .   S
    O26    C0        1.28157      .   S
    O25    C3        1.28147      .   S
    O4     C17       1.28144      .   S
    O28    C0        1.27419      .   S
    O7     C18       1.27381      .   S
    O27    C3        1.27400      .   S
    O6     C17       1.27348      .   S
