# CIF file generated by openbabel 2.4.90, see http://openbabel.sf.net
data_I
_chemical_name_common ''
_cell_length_a 14.308
_cell_length_b 15.844
_cell_length_c 15.845
_cell_angle_alpha 78.291
_cell_angle_beta 63.23
_cell_angle_gamma 63.229
_space_group_name_H-M_alt 'P 1'
_space_group_name_Hall 'P 1'
loop_
    _symmetry_equiv_pos_as_xyz
    x,y,z
loop_
    _atom_site_label
    _atom_site_type_symbol
    _atom_site_fract_x
    _atom_site_fract_y
    _atom_site_fract_z
    _atom_site_occupancy
    C0      C    0.30889   0.16672   0.37484   1.000
    C1      C    0.35573   0.40409   0.11392   1.000
    C2      C    0.84992   0.83319   0.62489   1.000
    C3      C    0.87392   0.59599   0.88601   1.000
    C4      C    0.31656   0.37430   0.83332   1.000
    C5      C    0.52983   0.11365   0.59576   1.000
    C6      C    0.52450   0.62471   0.16683   1.000
    C7      C    0.24032   0.88599   0.40383   1.000
    C8      C    0.34989   0.62502   0.83310   1.000
    C9      C    0.37403   0.88601   0.59580   1.000
    C10     C    0.80890   0.37495   0.16660   1.000
    C11     C    0.85571   0.11401   0.40390   1.000
    C12     C    0.02456   0.16690   0.62464   1.000
    C13     C    0.74033   0.40392   0.88590   1.000
    C14     C    0.81656   0.83339   0.37423   1.000
    C15     C    0.02988   0.59588   0.11356   1.000
