# CIF file generated by openbabel 2.4.90, see http://openbabel.sf.net
data_I
_chemical_name_common ''
_cell_length_a 13.585
_cell_length_b 14.447
_cell_length_c 14.451
_cell_angle_alpha 69.286
_cell_angle_beta 71.796
_cell_angle_gamma 108.206
_space_group_name_H-M_alt 'P 1'
_space_group_name_Hall 'P 1'
loop_
    _symmetry_equiv_pos_as_xyz
    x,y,z
loop_
    _atom_site_label
    _atom_site_type_symbol
    _atom_site_fract_x
    _atom_site_fract_y
    _atom_site_fract_z
    _atom_site_occupancy
    P0      P    0.06470   0.94639   0.39589   1.000
    P1      P    0.06507   0.35410   0.33296   1.000
    P2      P    0.46161   0.39604   0.65772   1.000
    P3      P    0.39786   0.33276   0.31304   1.000
    P4      P    0.11887   0.65771   0.94600   1.000
    P5      P    0.71115   0.31327   0.35405   1.000
    P6      P    0.93530   0.05364   0.60411   1.000
    P7      P    0.93493   0.64593   0.66700   1.000
    P8      P    0.53838   0.60399   0.34228   1.000
    P9      P    0.60214   0.66728   0.68697   1.000
    P10     P    0.88112   0.34233   0.05400   1.000
    P11     P    0.28885   0.68676   0.64595   1.000
    O12     O    0.11158   0.95133   0.48089   1.000
    O13     O    0.09071   0.07254   0.32533   1.000
    O14     O    0.92419   0.87100   0.47038   1.000
    O15     O    0.11391   0.90282   0.32296   1.000
    O16     O    0.12174   0.28672   0.29317   1.000
    O17     O    0.08741   0.45167   0.22057   1.000
    O18     O    0.12128   0.40591   0.39082   1.000
    O19     O    0.93101   0.28018   0.41084   1.000
    O20     O    0.59315   0.48132   0.56790   1.000
    O21     O    0.41721   0.32554   0.60214   1.000
    O22     O    0.39513   0.47038   0.65879   1.000
    O23     O    0.43821   0.32302   0.77418   1.000
    O24     O    0.41485   0.29317   0.42026   1.000
    O25     O    0.30782   0.22016   0.32836   1.000
    O26     O    0.51171   0.39025   0.20340   1.000
    O27     O    0.34158   0.41080   0.30877   1.000
    O28     O    0.16083   0.56781   0.95062   1.000
    O29     O    0.01909   0.60233   0.07199   1.000
    O30     O    0.05347   0.65874   0.87061   1.000
    O31     O    0.21164   0.77419   0.90246   1.000
    O32     O    0.83495   0.42062   0.28633   1.000
    O33     O    0.63638   0.32839   0.45142   1.000
    O34     O    0.71596   0.20374   0.40593   1.000
    O35     O    0.65044   0.30894   0.28045   1.000
    O36     O    0.88841   0.04870   0.51912   1.000
    O37     O    0.90929   0.92749   0.67467   1.000
    O38     O    0.07581   0.12904   0.52962   1.000
    O39     O    0.88608   0.09721   0.67704   1.000
    O40     O    0.87825   0.71331   0.70683   1.000
    O41     O    0.91258   0.54836   0.77944   1.000
    O42     O    0.87871   0.59412   0.60918   1.000
    O43     O    0.06898   0.71986   0.58916   1.000
    O44     O    0.40684   0.51871   0.43210   1.000
    O45     O    0.58279   0.67449   0.39787   1.000
    O46     O    0.60486   0.52965   0.34121   1.000
    O47     O    0.56179   0.67701   0.22583   1.000
    O48     O    0.58514   0.70686   0.57970   1.000
    O49     O    0.69217   0.77987   0.67164   1.000
    O50     O    0.48828   0.60978   0.79657   1.000
    O51     O    0.65841   0.58923   0.69120   1.000
    O52     O    0.83916   0.43222   0.04938   1.000
    O53     O    0.98090   0.39771   0.92801   1.000
    O54     O    0.94652   0.34129   0.12940   1.000
    O55     O    0.78836   0.22584   0.09754   1.000
    O56     O    0.16505   0.57941   0.71367   1.000
    O57     O    0.36361   0.67164   0.54858   1.000
    O58     O    0.28404   0.79630   0.59408   1.000
    O59     O    0.34956   0.69109   0.71956   1.000
loop_
    _geom_bond_atom_site_label_1
    _geom_bond_atom_site_label_2
    _geom_bond_distance
    _geom_bond_site_symmetry_2
    _ccdc_geom_bond_type
    O52    P10       1.56237      .   S
    P10    O55       1.49879      .   S
    P10    O54       1.60576      .   S
    P10    O53       1.59447  1_554   S
    O29    P4        1.59447  1_554   S
    O26    P3        1.52568      .   S
    O17    P1        1.58808      .   S
    O47    P8        1.49869      .   S
    O35    P5        1.54214      .   S
    O32    P5        1.56837      .   S
    O16    P1        1.56795      .   S
    O27    P3        1.54219      .   S
    P3     O25       1.58867      .   S
    P3     O24       1.56853      .   S
    O15    P0        1.49860      .   S
    O13    P0        1.59498  1_545   S
    P1     O18       1.52547      .   S
    P1     O19       1.54194  1_455   S
    O46    P8        1.60575      .   S
    P8     O45       1.59512      .   S
    P8     O44       1.56195      .   S
    P5     O34       1.52527      .   S
    P5     O33       1.58818      .   S
    P0     O14       1.60512  1_455   S
    P0     O12       1.56267      .   S
    O36    P6        1.56253      .   S
    O38    P6        1.60512  1_455   S
    O57    P11       1.58819      .   S
    O20    P2        1.56195      .   S
    O48    P9        1.56918      .   S
    O43    P7        1.54187  1_455   S
    O58    P11       1.52525      .   S
    O21    P2        1.59500      .   S
    P6     O37       1.59498  1_545   S
    P6     O39       1.49860      .   S
    O42    P7        1.52496      .   S
    P11    O56       1.56837      .   S
    P11    O59       1.54227      .   S
    P2     O22       1.60575      .   S
    P2     O23       1.49881      .   S
    P7     O40       1.56820      .   S
    P7     O41       1.58855      .   S
    O49    P9        1.58861      .   S
    P9     O51       1.54222      .   S
    P9     O50       1.52538      .   S
    O30    P4        1.60564      .   S
    O31    P4        1.49879      .   S
    P4     O28       1.56237      .   S
