# CIF file generated by openbabel 2.4.90, see http://openbabel.sf.net
data_I
_chemical_name_common ''
_cell_length_a 8.651
_cell_length_b 15.345
_cell_length_c 17.421
_cell_angle_alpha 90
_cell_angle_beta 90
_cell_angle_gamma 90.001
_space_group_name_H-M_alt 'P 1'
_space_group_name_Hall 'P 1'
loop_
    _symmetry_equiv_pos_as_xyz
    x,y,z
loop_
    _atom_site_label
    _atom_site_type_symbol
    _atom_site_fract_x
    _atom_site_fract_y
    _atom_site_fract_z
    _atom_site_occupancy
    Zr0     Zr   0.64421   0.26478   0.38890   1.000
    Zr1     Zr   0.85580   0.76476   0.61108   1.000
    Zr2     Zr   0.35579   0.73524   0.88889   1.000
    Zr3     Zr   0.14421   0.23526   0.11109   1.000
    Zr4     Zr   0.35579   0.73524   0.61108   1.000
    Zr5     Zr   0.14420   0.23526   0.38890   1.000
    Zr6     Zr   0.64421   0.26478   0.11109   1.000
    Zr7     Zr   0.85579   0.76476   0.88889   1.000
    N8      N    0.72395   0.43618   0.93690   1.000
    O9      O    0.69233   0.37547   0.99032   1.000
    N10     N    0.94996   0.29007   0.24999   1.000
    O11     O    0.83058   0.29929   0.33412   1.000
    O12     O    0.83058   0.29929   0.16587   1.000
    N13     N    0.27605   0.56384   0.06308   1.000
    O14     O    0.30767   0.62455   0.00966   1.000
    N15     N    0.55008   0.79002   0.74998   1.000
    O16     O    0.66943   0.79928   0.66586   1.000
    O17     O    0.66942   0.79928   0.83411   1.000
    N18     N    0.05003   0.70994   0.74998   1.000
    O19     O    0.16943   0.70073   0.66586   1.000
    O20     O    0.16942   0.70073   0.83411   1.000
    N21     N    0.22394   0.06385   0.93690   1.000
    O22     O    0.19232   0.12456   0.99032   1.000
    N23     N    0.22395   0.06385   0.56307   1.000
    O24     O    0.19232   0.12456   0.50966   1.000
    N25     N    0.27605   0.56384   0.43691   1.000
    O26     O    0.30767   0.62455   0.49033   1.000
    N27     N    0.77606   0.93617   0.43692   1.000
    O28     O    0.80768   0.87546   0.49032   1.000
    N29     N    0.44993   0.20999   0.25000   1.000
    O30     O    0.33057   0.20074   0.33412   1.000
    O31     O    0.33057   0.20074   0.16587   1.000
    N32     N    0.77606   0.93617   0.06308   1.000
    O33     O    0.80768   0.87546   0.00967   1.000
    N34     N    0.72396   0.43617   0.56307   1.000
    O35     O    0.69233   0.37547   0.50966   1.000
    C36     C    0.38099   0.40420   0.37015   1.000
    O37     O    0.34372   0.46011   0.39257   1.000
    O38     O    0.47941   0.37153   0.37738   1.000
    O39     O    0.29286   0.35425   0.37052   1.000
    C40     C    0.88097   0.09584   0.37015   1.000
    O41     O    0.79285   0.14580   0.37052   1.000
    O42     O    0.97940   0.12852   0.37738   1.000
    O43     O    0.84371   0.03993   0.39257   1.000
    C44     C    0.47462   0.19109   0.49106   1.000
    O45     O    0.38990   0.14798   0.51644   1.000
    O46     O    0.37153   0.21513   0.45952   1.000
    C47     C    0.97463   0.30895   0.49106   1.000
    O48     O    0.87154   0.28491   0.45952   1.000
    O49     O    0.88990   0.35205   0.51644   1.000
    C50     C    0.38099   0.40420   0.12984   1.000
    O51     O    0.47941   0.37153   0.12261   1.000
    O52     O    0.29286   0.35425   0.12947   1.000
    O53     O    0.34372   0.46011   0.10742   1.000
    C54     C    0.88097   0.09585   0.12984   1.000
    O55     O    0.79285   0.14580   0.12947   1.000
    O56     O    0.97940   0.12852   0.12261   1.000
    O57     O    0.84371   0.03993   0.10742   1.000
    C58     C    0.47462   0.19109   0.00893   1.000
    O59     O    0.37154   0.21512   0.04046   1.000
    O60     O    0.38989   0.14798   0.98354   1.000
    C61     C    0.97463   0.30895   0.00893   1.000
    O62     O    0.88990   0.35205   0.98354   1.000
    O63     O    0.87154   0.28491   0.04046   1.000
    C64     C    0.02537   0.69108   0.99009   1.000
    O65     O    0.11010   0.64797   0.01559   1.000
    O66     O    0.12846   0.71511   0.95903   1.000
    C67     C    0.11903   0.90418   0.87014   1.000
    O68     O    0.02061   0.87150   0.87737   1.000
    O69     O    0.15629   0.96009   0.89256   1.000
    O70     O    0.20715   0.85423   0.87051   1.000
    C71     C    0.52538   0.80893   0.99009   1.000
    O72     O    0.61011   0.85204   0.01560   1.000
    O73     O    0.62847   0.78490   0.95903   1.000
    C74     C    0.61902   0.59582   0.87014   1.000
    O75     O    0.52059   0.62849   0.87736   1.000
    O76     O    0.65629   0.53992   0.89256   1.000
    O77     O    0.70714   0.64578   0.87050   1.000
    C78     C    0.52538   0.80893   0.50892   1.000
    O79     O    0.61011   0.85204   0.48354   1.000
    O80     O    0.62847   0.78490   0.54046   1.000
    C81     C    0.11903   0.90418   0.62983   1.000
    O82     O    0.20715   0.85423   0.62946   1.000
    O83     O    0.15630   0.96009   0.60741   1.000
    O84     O    0.02061   0.87151   0.62260   1.000
    C85     C    0.02537   0.69107   0.50892   1.000
    O86     O    0.11010   0.64797   0.48354   1.000
    O87     O    0.12846   0.71511   0.54046   1.000
    C88     C    0.61902   0.59582   0.62983   1.000
    O89     O    0.70714   0.64577   0.62946   1.000
    O90     O    0.52060   0.62849   0.62260   1.000
    O91     O    0.65629   0.53992   0.60741   1.000
    O92     O    0.52073   0.21157   0.03595   1.000
    O93     O    0.52566   0.23289   0.19057   1.000
    O94     O    0.97927   0.71155   0.96355   1.000
    O95     O    0.97434   0.73288   0.80941   1.000
    O96     O    0.02073   0.28847   0.46404   1.000
    O97     O    0.02566   0.26715   0.30942   1.000
    O98     O    0.02073   0.28847   0.03595   1.000
    O99     O    0.02566   0.26715   0.19057   1.000
    O100    O    0.47928   0.78845   0.96355   1.000
    O101    O    0.47433   0.76714   0.80941   1.000
    O102    O    0.97928   0.71155   0.53594   1.000
    O103    O    0.97435   0.73288   0.69056   1.000
    O104    O    0.52566   0.23289   0.30942   1.000
    O105    O    0.47928   0.78845   0.53594   1.000
    O106    O    0.47434   0.76714   0.69056   1.000
    O107    O    0.52072   0.21157   0.46404   1.000
loop_
    _geom_bond_atom_site_label_1
    _geom_bond_atom_site_label_2
    _geom_bond_distance
    _geom_bond_site_symmetry_2
    _ccdc_geom_bond_type
    N8     O9        1.34484      .   S
    Zr6    O9        2.73589  1_554   S
    N10    O11       1.79851      .   S
    Zr0    O11       1.94690      .   S
    N10    O12       1.79849      .   S
    Zr6    O12       1.94689      .   S
    N13    O14       1.34484      .   S
    Zr2    O14       2.73588  1_556   S
    N15    O16       1.79835      .   S
    Zr1    O16       1.94701      .   S
    N15    O17       1.79833      .   S
    Zr7    O17       1.94699      .   S
    N18    O19       1.79856      .   S
    Zr4    O19       1.94690      .   S
    N18    O20       1.79856      .   S
    Zr2    O20       1.94688      .   S
    N21    O22       1.34487      .   S
    Zr3    O22       2.73598  1_554   S
    N23    O24       1.34480      .   S
    Zr5    O24       2.73578      .   S
    N25    O26       1.34476      .   S
    Zr4    O26       2.73561      .   S
    N27    O28       1.34479      .   S
    Zr1    O28       2.73572      .   S
    N29    O30       1.79841      .   S
    Zr5    O30       1.94697      .   S
    N29    O31       1.79841      .   S
    Zr3    O31       1.94695      .   S
    N32    O33       1.34487      .   S
    Zr7    O33       2.73600  1_556   S
    N34    O35       1.34479      .   S
    Zr0    O35       2.73568      .   S
    C36    O37       0.99618      .   S
    N25    O37       1.86376      .   S
    C36    O38       0.99608      .   S
    Zr0    O38       2.18087      .   S
    C36    O39       1.08116      .   S
    Zr5    O39       2.25612      .   S
    C40    O41       1.08111      .   S
    Zr0    O41       2.25606      .   S
    C40    O42       0.99610      .   S
    Zr5    O42       2.18081  1_455   S
    C40    O43       0.99631      .   S
    N27    O43       1.86397  1_565   S
    C44    O45       1.08180      .   S
    N23    O45       2.09462      .   S
    C44    O46       1.11049      .   S
    Zr5    O46       2.34026      .   S
    C47    O48       1.11046      .   S
    Zr0    O48       2.34024      .   S
    C47    O49       1.08179      .   S
    N34    O49       2.09460      .   S
    C50    O51       0.99609      .   S
    Zr6    O51       2.18089      .   S
    C50    O52       1.08115      .   S
    Zr3    O52       2.25612      .   S
    C50    O53       0.99618      .   S
    N13    O53       1.86376      .   S
    C54    O55       1.08109      .   S
    Zr6    O55       2.25602      .   S
    C54    O56       0.99610      .   S
    Zr3    O56       2.18079  1_455   S
    C54    O57       0.99631      .   S
    N32    O57       1.86396  1_565   S
    C58    O59       1.11051      .   S
    Zr3    O59       2.34029      .   S
    C58    O60       1.08185  1_554   S
    N21    O60       2.09472      .   S
    C61    O62       1.08184  1_554   S
    N8     O62       2.09469      .   S
    C61    O63       1.11048      .   S
    Zr6    O63       2.34025      .   S
    C64    O65       1.08270  1_556   S
    N13    O65       2.10045      .   S
    C64    O66       1.10635      .   S
    Zr2    O66       2.33585      .   S
    C67    O68       0.99610      .   S
    Zr7    O68       2.18079  1_655   S
    C67    O69       0.99631      .   S
    N21    O69       1.86397  1_545   S
    C67    O70       1.08109      .   S
    Zr2    O70       2.25602      .   S
    C71    O72       1.08272  1_556   S
    N32    O72       2.10046      .   S
    C71    O73       1.10638      .   S
    Zr7    O73       2.33588      .   S
    C74    O75       0.99609      .   S
    Zr2    O75       2.18090      .   S
    C74    O76       0.99618      .   S
    N8     O76       1.86377      .   S
    C74    O77       1.08114      .   S
    Zr7    O77       2.25610      .   S
    C78    O79       1.08181      .   S
    N27    O79       2.09462      .   S
    C78    O80       1.11049      .   S
    Zr1    O80       2.34027      .   S
    C81    O82       1.08112      .   S
    Zr4    O82       2.25607      .   S
    C81    O83       0.99631      .   S
    N23    O83       1.86397  1_545   S
    C81    O84       0.99610      .   S
    Zr1    O84       2.18082  1_655   S
    C85    O86       1.08179      .   S
    N25    O86       2.09460      .   S
    C85    O87       1.11046      .   S
    Zr4    O87       2.34023      .   S
    C88    O89       1.08116      .   S
    Zr1    O89       2.25613      .   S
    C88    O90       0.99609      .   S
    Zr4    O90       2.18091      .   S
    C88    O91       0.99618      .   S
    N34    O91       1.86376      .   S
    Zr6    O92       1.87659      .   S
    C58    O92       0.69240      .   S
    Zr6    O93       1.79122      .   S
    N29    O93       1.27456      .   S
    C64    O94       0.68669  1_455   S
    Zr7    O94       1.87067      .   S
    Zr7    O95       1.79117      .   S
    N18    O95       1.27449  1_455   S
    Zr5    O96       1.87641      .   S
    C47    O96       0.69235  1_655   S
    Zr5    O97       1.79117      .   S
    N10    O97       1.27449  1_655   S
    Zr3    O98       1.87652      .   S
    C61    O98       0.69237  1_655   S
    Zr3    O99       1.79118      .   S
    N10    O99       1.27449  1_655   S
    Zr2    O100      1.87074      .   S
    C71    O100      0.68672      .   S
    Zr2    O101      1.79120      .   S
    N15    O101      1.27456      .   S
    Zr1    O102      1.87641      .   S
    C85    O102      0.69236  1_455   S
    Zr1    O103      1.79117      .   S
    N18    O103      1.27447  1_455   S
    N29    O104      1.27454      .   S
    Zr0    O104      1.79121      .   S
    Zr4    O105      1.87649      .   S
    C78    O105      0.69239      .   S
    Zr4    O106      1.79119      .   S
    N15    O106      1.27457      .   S
    Zr0    O107      1.87648      .   S
    C44    O107      0.69239      .   S
