# CIF file generated by openbabel 2.4.90, see http://openbabel.sf.net
data_I
_chemical_name_common ''
_cell_length_a 19.518
_cell_length_b 19.551
_cell_length_c 19.542
_cell_angle_alpha 72.051
_cell_angle_beta 71.978
_cell_angle_gamma 71.943
_space_group_name_H-M_alt 'P 1'
_space_group_name_Hall 'P 1'
loop_
    _symmetry_equiv_pos_as_xyz
    x,y,z
loop_
    _atom_site_label
    _atom_site_type_symbol
    _atom_site_fract_x
    _atom_site_fract_y
    _atom_site_fract_z
    _atom_site_occupancy
    C0      C    0.54770   0.44560   0.94349   1.000
    C1      C    0.48044   0.69282   0.00240   1.000
    C2      C    0.69005   0.21437   0.00166   1.000
    C3      C    0.74983   0.14424   0.24869   1.000
    C4      C    0.94338   0.54762   0.44540   1.000
    C5      C    0.00296   0.47751   0.69254   1.000
    C6      C    0.00125   0.69099   0.21397   1.000
    C7      C    0.24797   0.75176   0.14507   1.000
    C8      C    0.44505   0.94027   0.54898   1.000
    C9      C    0.69189   0.00076   0.48014   1.000
    C10     C    0.21280   0.99923   0.69162   1.000
    C11     C    0.14527   0.24635   0.75077   1.000
    C12     C    0.94455   0.04755   0.44277   1.000
    C13     C    0.19169   0.97793   0.50264   1.000
    C14     C    0.71277   0.19017   0.50164   1.000
    C15     C    0.64482   0.25139   0.74790   1.000
    C16     C    0.04801   0.44062   0.94631   1.000
    C17     C    0.98024   0.50168   0.19265   1.000
    C18     C    0.19114   0.49918   0.71444   1.000
    C19     C    0.24946   0.74678   0.64543   1.000
    C20     C    0.44371   0.94528   0.04847   1.000
    C21     C    0.50175   0.19292   0.97994   1.000
    C22     C    0.50132   0.71422   0.19141   1.000
    C23     C    0.74838   0.64432   0.25149   1.000
