# CIF file generated by openbabel 2.4.90, see http://openbabel.sf.net
data_I
_chemical_name_common ''
_cell_length_a 10.3735
_cell_length_b 13.1705
_cell_length_c 19.994
_cell_angle_alpha 90.022
_cell_angle_beta 90.002
_cell_angle_gamma 90.307
_space_group_name_H-M_alt 'P 1'
_space_group_name_Hall 'P 1'
loop_
    _symmetry_equiv_pos_as_xyz
    x,y,z
loop_
    _atom_site_label
    _atom_site_type_symbol
    _atom_site_fract_x
    _atom_site_fract_y
    _atom_site_fract_z
    _atom_site_occupancy
    C0      C    0.84310   0.33116   0.01235   1.000
    C1      C    0.77482   0.06687   0.87372   1.000
    C2      C    0.73336   0.93360   0.59816   1.000
    C3      C    0.65689   0.66875   0.51210   1.000
    C4      C    0.72517   0.93322   0.37374   1.000
    C5      C    0.76660   0.06633   0.09814   1.000
    C6      C    0.15802   0.82783   0.48742   1.000
    C7      C    0.22486   0.56464   0.62583   1.000
    C8      C    0.27068   0.43507   0.90169   1.000
    C9      C    0.34195   0.17212   0.98743   1.000
    C10     C    0.27527   0.43518   0.12588   1.000
    C11     C    0.22949   0.56467   0.40179   1.000
