# CIF file generated by openbabel 2.4.90, see http://openbabel.sf.net
data_I
_chemical_name_common ''
_cell_length_a 16.985
_cell_length_b 20.631
_cell_length_c 14.176
_cell_angle_alpha 67.192
_cell_angle_beta 75.133
_cell_angle_gamma 76.554
_space_group_name_H-M_alt 'P 1'
_space_group_name_Hall 'P 1'
loop_
    _symmetry_equiv_pos_as_xyz
    x,y,z
loop_
    _atom_site_label
    _atom_site_type_symbol
    _atom_site_fract_x
    _atom_site_fract_y
    _atom_site_fract_z
    _atom_site_occupancy
    Zr0     Zr   0.46414   0.21717   0.15353   1.000
    Zr1     Zr   0.46414   0.71716   0.15355   1.000
    Zr2     Zr   0.96415   0.21716   0.15353   1.000
    Zr3     Zr   0.96413   0.71716   0.15354   1.000
    Zr4     Zr   0.03587   0.28284   0.84691   1.000
    Zr5     Zr   0.03586   0.78284   0.84690   1.000
    Zr6     Zr   0.53588   0.28285   0.84690   1.000
    Zr7     Zr   0.53588   0.78284   0.84692   1.000
    N8      N    0.24999   0.50000   0.00027   1.000
    O9      O    0.13586   0.59787   0.08301   1.000
    O10     O    0.36413   0.40212   0.91750   1.000
    N11     N    0.50002   0.00001   0.00022   1.000
    O12     O    0.48058   0.88441   0.05511   1.000
    O13     O    0.52282   0.90690   0.94143   1.000
    O14     O    0.51947   0.11560   0.94534   1.000
    O15     O    0.47722   0.09312   0.05901   1.000
    N16     N    0.75000   1.00000   0.00028   1.000
    O17     O    0.86413   0.90212   0.91750   1.000
    O18     O    0.63587   0.09787   0.08301   1.000
    N19     N    0.75000   0.49999   0.00026   1.000
    O20     O    0.86413   0.40212   0.91748   1.000
    O21     O    0.63587   0.59787   0.08301   1.000
    N22     N    0.74999   0.25001   0.50020   1.000
    O23     O    0.66811   0.26792   0.64614   1.000
    O24     O    0.83188   0.23210   0.35426   1.000
    N25     N    0.50001   0.50001   0.00022   1.000
    O26     O    0.47721   0.59312   0.05902   1.000
    O27     O    0.52281   0.40690   0.94142   1.000
    O28     O    0.48057   0.38442   0.05509   1.000
    O29     O    0.51946   0.61560   0.94535   1.000
    N30     N    0.00000   0.50001   0.00022   1.000
    O31     O    0.02280   0.40690   0.94142   1.000
    O32     O    0.01944   0.61560   0.94535   1.000
    O33     O    0.97720   0.59312   0.05902   1.000
    O34     O    0.98057   0.38441   0.05509   1.000
    N35     N    0.25000   0.99999   0.00029   1.000
    O36     O    0.36414   0.90212   0.91752   1.000
    O37     O    0.13587   0.09787   0.08302   1.000
    N38     N    0.24999   0.75000   0.50023   1.000
    O39     O    0.16810   0.76791   0.64616   1.000
    O40     O    0.33187   0.73209   0.35428   1.000
    N41     N    0.00001   0.00001   0.00023   1.000
    O42     O    0.01946   0.11560   0.94535   1.000
    O43     O    0.02280   0.90690   0.94143   1.000
    O44     O    0.97722   0.09312   0.05902   1.000
    O45     O    0.98057   0.88441   0.05510   1.000
    N46     N    0.24999   0.25001   0.50020   1.000
    O47     O    0.16811   0.26792   0.64615   1.000
    O48     O    0.33188   0.23210   0.35426   1.000
    N49     N    0.74999   0.75000   0.50022   1.000
    O50     O    0.83188   0.73209   0.35428   1.000
    O51     O    0.66811   0.76791   0.64616   1.000
loop_
    _geom_bond_atom_site_label_1
    _geom_bond_atom_site_label_2
    _geom_bond_distance
    _geom_bond_site_symmetry_2
    _ccdc_geom_bond_type
    N8     O9        2.83902      .   S
    Zr3    O9        3.55481  1_655   S
    N8     O10       2.83929  1_554   S
    Zr6    O10       3.55523      .   S
    N11    O12       2.27993  1_545   S
    Zr1    O12       3.23217      .   S
    N11    O13       2.29447  1_544   S
    Zr7    O13       3.26144      .   S
    N11    O14       2.27978  1_554   S
    Zr6    O14       3.23192      .   S
    N11    O15       2.29440      .   S
    Zr0    O15       3.26118      .   S
    N16    O17       2.83928  1_554   S
    Zr5    O17       3.55512  1_455   S
    N16    O18       2.83900  1_565   S
    Zr0    O18       3.55483      .   S
    N19    O20       2.83927  1_554   S
    Zr4    O20       3.55498  1_455   S
    N19    O21       2.83912      .   S
    Zr1    O21       3.55493      .   S
    N22    O23       2.28649      .   S
    Zr6    O23       3.21193      .   S
    N22    O24       2.28655      .   S
    Zr2    O24       3.21196      .   S
    N25    O26       2.29442      .   S
    Zr1    O26       3.26118      .   S
    N25    O27       2.29449  1_554   S
    Zr6    O27       3.26146      .   S
    N25    O28       2.27988      .   S
    Zr0    O28       3.23206      .   S
    N25    O29       2.27975  1_554   S
    Zr7    O29       3.23184      .   S
    N30    O31       2.29449  1_554   S
    Zr4    O31       3.26141      .   S
    N30    O32       2.27975  1_554   S
    Zr5    O32       3.23188      .   S
    N30    O33       2.29443  1_455   S
    Zr3    O33       3.26120      .   S
    N30    O34       2.27984  1_455   S
    Zr2    O34       3.23201      .   S
    N35    O36       2.83929  1_554   S
    Zr7    O36       3.55521      .   S
    N35    O37       2.83899  1_565   S
    Zr2    O37       3.55472  1_655   S
    N38    O39       2.28644      .   S
    Zr5    O39       3.21182      .   S
    N38    O40       2.28655      .   S
    Zr1    O40       3.21193      .   S
    N41    O42       2.27978  1_554   S
    Zr4    O42       3.23190      .   S
    N41    O43       2.29450  1_544   S
    Zr5    O43       3.26155      .   S
    N41    O44       2.29442  1_455   S
    Zr2    O44       3.26120      .   S
    N41    O45       2.27989  1_445   S
    Zr3    O45       3.23209      .   S
    N46    O47       2.28653      .   S
    Zr4    O47       3.21198      .   S
    N46    O48       2.28655      .   S
    Zr0    O48       3.21195      .   S
    N49    O50       2.28651      .   S
    Zr3    O50       3.21189      .   S
    N49    O51       2.28653      .   S
    Zr7    O51       3.21195      .   S
