# CIF file generated by openbabel 2.4.90, see http://openbabel.sf.net
data_I
_chemical_name_common ''
_cell_length_a 14.828
_cell_length_b 14.816
_cell_length_c 16.775
_cell_angle_alpha 102.675
_cell_angle_beta 102.684
_cell_angle_gamma 115.839
_space_group_name_H-M_alt 'P 1'
_space_group_name_Hall 'P 1'
loop_
    _symmetry_equiv_pos_as_xyz
    x,y,z
loop_
    _atom_site_label
    _atom_site_type_symbol
    _atom_site_fract_x
    _atom_site_fract_y
    _atom_site_fract_z
    _atom_site_occupancy
    N0      N    0.48308   0.22342   0.62328   1.000
    N1      N    0.77657   0.51694   0.87645   1.000
    N2      N    0.22342   0.48309   0.12353   1.000
    N3      N    0.51691   0.77660   0.37670   1.000
    Zr4     Zr   0.07463   0.47341   0.57820   1.000
    O5      O    0.19275   0.55570   0.51729   1.000
    O6      O    0.00405   0.50036   0.66476   1.000
    O7      O    0.15785   0.39820   0.58658   1.000
    O8      O    0.18613   0.40130   0.59344   1.000
    Zr9     Zr   0.67111   0.32929   0.25011   1.000
    O10     O    0.82282   0.37199   0.21153   1.000
    O11     O    0.54390   0.36562   0.20689   1.000
    O12     O    0.63473   0.45641   0.29337   1.000
    O13     O    0.62830   0.17746   0.28869   1.000
    Zr14    Zr   0.52590   0.92493   0.92119   1.000
    O15     O    0.60131   0.84184   0.91293   1.000
    O16     O    0.59817   0.81355   0.90601   1.000
    O17     O    0.44382   0.80692   0.98232   1.000
    O18     O    0.49914   0.99565   0.83474   1.000
    Zr19    Zr   0.32889   0.67073   0.74980   1.000
    O20     O    0.17717   0.62803   0.78840   1.000
    O21     O    0.45610   0.63441   0.79305   1.000
    O22     O    0.37170   0.82256   0.71124   1.000
    O23     O    0.36527   0.54361   0.70656   1.000
    Zr24    Zr   0.92537   0.52661   0.42178   1.000
    O25     O    0.84214   0.60183   0.41340   1.000
    O26     O    0.99595   0.49966   0.33521   1.000
    O27     O    0.80725   0.44432   0.48269   1.000
    O28     O    0.81386   0.59872   0.40654   1.000
    Zr29    Zr   0.47409   0.07509   0.07879   1.000
    O30     O    0.55618   0.19310   0.01766   1.000
    O31     O    0.39869   0.15818   0.08705   1.000
    O32     O    0.40182   0.18648   0.09397   1.000
    O33     O    0.50086   0.00438   0.16524   1.000
loop_
    _geom_bond_atom_site_label_1
    _geom_bond_atom_site_label_2
    _geom_bond_distance
    _geom_bond_site_symmetry_2
    _ccdc_geom_bond_type
    Zr4    O5        2.25146      .   S
    N3     O5        5.83360      .   S
    Zr4    O6        2.03482      .   S
    N1     O6        5.44484  1_655   S
    Zr4    O7        1.99399      .   S
    N0     O7        6.37351      .   S
    Zr4    O8        2.32691      .   S
    N0     O8        6.02584      .   S
    Zr9    O10       2.33631      .   S
    N2     O10       6.04708  1_455   S
    Zr9    O11       2.19748      .   S
    N2     O11       5.73803      .   S
    Zr9    O12       2.19601      .   S
    N3     O12       5.73560      .   S
    Zr9    O13       2.33593      .   S
    N3     O13       6.04564  1_565   S
    Zr14   O15       1.99450      .   S
    N1     O15       6.37273      .   S
    Zr14   O16       2.32676      .   S
    N1     O16       6.02569      .   S
    Zr14   O17       2.25171      .   S
    N2     O17       5.83359  1_554   S
    Zr14   O18       2.03341      .   S
    N0     O18       5.44164  1_545   S
    Zr19   O20       2.33655      .   S
    N1     O20       6.04747  1_655   S
    Zr19   O21       2.19757      .   S
    N1     O21       5.73813      .   S
    Zr19   O22       2.33569      .   S
    N0     O22       6.04529  1_545   S
    Zr19   O23       2.19596      .   S
    N0     O23       5.73548      .   S
    Zr24   O25       1.99399      .   S
    N3     O25       6.37351      .   S
    Zr24   O26       2.03490      .   S
    N2     O26       5.44475  1_455   S
    Zr24   O27       2.25146      .   S
    N0     O27       5.83356      .   S
    Zr24   O28       2.32691      .   S
    N3     O28       6.02584      .   S
    Zr29   O30       2.25171      .   S
    N1     O30       5.83358  1_556   S
    Zr29   O31       1.99450      .   S
    N2     O31       6.37274      .   S
    Zr29   O32       2.32676      .   S
    N2     O32       6.02570      .   S
    Zr29   O33       2.03341      .   S
    N3     O33       5.44159  1_565   S
