# CIF file generated by openbabel 2.4.90, see http://openbabel.sf.net
data_I
_chemical_name_common ''
_cell_length_a 10.246
_cell_length_b 21.667
_cell_length_c 12.269
_cell_angle_alpha 90.126
_cell_angle_beta 90.077
_cell_angle_gamma 93.863
_space_group_name_H-M_alt 'P 1'
_space_group_name_Hall 'P 1'
loop_
    _symmetry_equiv_pos_as_xyz
    x,y,z
loop_
    _atom_site_label
    _atom_site_type_symbol
    _atom_site_fract_x
    _atom_site_fract_y
    _atom_site_fract_z
    _atom_site_occupancy
    P0      P    0.22550   0.41569   0.47724   1.000
    P1      P    0.22612   0.91618   0.47814   1.000
    P2      P    0.72540   0.41571   0.47726   1.000
    P3      P    0.72703   0.91617   0.47784   1.000
    P4      P    0.27367   0.08396   0.97687   1.000
    P5      P    0.27320   0.58327   0.97779   1.000
    P6      P    0.77362   0.08402   0.97740   1.000
    P7      P    0.77319   0.58327   0.97777   1.000
    P8      P    0.27310   0.08323   0.52147   1.000
    P9      P    0.27453   0.58397   0.52271   1.000
    P10     P    0.77218   0.08320   0.52186   1.000
    P11     P    0.77463   0.58393   0.52266   1.000
    P12     P    0.22682   0.41672   0.02218   1.000
    P13     P    0.22662   0.91603   0.02266   1.000
    P14     P    0.72682   0.41675   0.02222   1.000
    P15     P    0.72661   0.91602   0.02251   1.000
    O16     O    0.39814   0.06605   0.03315   1.000
    O17     O    0.39808   0.56576   0.03398   1.000
    O18     O    0.64916   0.05275   0.02423   1.000
    O19     O    0.64931   0.55217   0.02624   1.000
    O20     O    0.60213   0.93409   0.96649   1.000
    O21     O    0.35113   0.94729   0.97500   1.000
loop_
    _geom_bond_atom_site_label_1
    _geom_bond_atom_site_label_2
    _geom_bond_distance
    _geom_bond_site_symmetry_2
    _ccdc_geom_bond_type
    P15    O20       1.52257  1_554   S
    P13    O21       1.52169  1_554   S
    O18    P6        1.51742  1_554   S
    O19    P7        1.51897  1_554   S
    O16    P4        1.52290  1_554   S
    O17    P5        1.52339  1_554   S
