# CIF file generated by openbabel 2.4.90, see http://openbabel.sf.net
data_I
_chemical_name_common ''
_cell_length_a 17.739
_cell_length_b 17.719
_cell_length_c 17.713
_cell_angle_alpha 96.741
_cell_angle_beta 96.796
_cell_angle_gamma 96.639
_space_group_name_H-M_alt 'P 1'
_space_group_name_Hall 'P 1'
loop_
    _symmetry_equiv_pos_as_xyz
    x,y,z
loop_
    _atom_site_label
    _atom_site_type_symbol
    _atom_site_fract_x
    _atom_site_fract_y
    _atom_site_fract_z
    _atom_site_occupancy
    N0      N    0.17145   0.88404   0.17062   1.000
    N1      N    0.35747   0.88785   0.35573   1.000
    O2      O    0.28787   0.88730   0.28653   1.000
    N3      N    0.88659   0.17184   0.17123   1.000
    N4      N    0.88936   0.35731   0.35646   1.000
    O5      O    0.88930   0.28795   0.28720   1.000
    N6      N    0.35789   0.35654   0.88821   1.000
    N7      N    0.17226   0.17170   0.88430   1.000
    O8      O    0.24205   0.24121   0.88670   1.000
    Zr9     Zr   0.23852   0.87957   0.87908   1.000
    O10     O    0.26620   0.88030   0.76194   1.000
    O11     O    0.21115   0.88095   0.99604   1.000
    O12     O    0.21157   0.99681   0.88079   1.000
    O13     O    0.26600   0.76246   0.88016   1.000
    Zr14    Zr   0.88023   0.88004   0.23732   1.000
    O15     O    0.99712   0.88125   0.21029   1.000
    O16     O    0.88141   0.76293   0.26456   1.000
    O17     O    0.88250   0.99716   0.21053   1.000
    O18     O    0.76303   0.88178   0.26396   1.000
    Zr19    Zr   0.88060   0.23798   0.87942   1.000
    O20     O    0.76345   0.26476   0.88107   1.000
    O21     O    0.99768   0.21115   0.88099   1.000
    O22     O    0.88272   0.21111   0.99653   1.000
    O23     O    0.88120   0.26529   0.76220   1.000
loop_
    _geom_bond_atom_site_label_1
    _geom_bond_atom_site_label_2
    _geom_bond_distance
    _geom_bond_site_symmetry_2
    _ccdc_geom_bond_type
    N1     O2        1.63187      .   S
    N0     O2        2.72488      .   S
    N4     O5        1.63116      .   S
    N3     O5        2.72330      .   S
    N7     O8        1.63525      .   S
    N6     O8        2.72065      .   S
    Zr9    O10       2.18928      .   S
    N1     O10       7.57243      .   S
    Zr9    O11       2.18109      .   S
    N0     O11       3.24739  1_554   S
    Zr9    O12       2.18234      .   S
    N7     O12       3.24940  1_545   S
    Zr9    O13       2.18755      .   S
    N6     O13       7.57012      .   S
    Zr14   O15       2.18075      .   S
    N0     O15       3.24757  1_455   S
    Zr14   O16       2.18686      .   S
    N4     O16       7.56646      .   S
    Zr14   O17       2.17936      .   S
    N3     O17       3.24584  1_545   S
    Zr14   O18       2.18855      .   S
    N1     O18       7.57084      .   S
    Zr19   O20       2.18722      .   S
    N6     O20       7.56904      .   S
    Zr19   O21       2.18127      .   S
    N7     O21       3.24798  1_455   S
    Zr19   O22       2.17908      .   S
    N3     O22       3.24525  1_554   S
    Zr19   O23       2.18755      .   S
    N4     O23       7.56788      .   S
