# CIF file generated by openbabel 2.4.90, see http://openbabel.sf.net
data_I
_chemical_name_common ''
_cell_length_a 16.501
_cell_length_b 19.542
_cell_length_c 19.54
_cell_angle_alpha 90
_cell_angle_beta 89.994
_cell_angle_gamma 90.039
_space_group_name_H-M_alt 'P 1'
_space_group_name_Hall 'P 1'
loop_
    _symmetry_equiv_pos_as_xyz
    x,y,z
loop_
    _atom_site_label
    _atom_site_type_symbol
    _atom_site_fract_x
    _atom_site_fract_y
    _atom_site_fract_z
    _atom_site_occupancy
    Zn0     Zn   0.81613   0.11679   0.66644   1.000
    Zn1     Zn   0.31614   0.16645   0.38322   1.000
    Zn2     Zn   0.31612   0.83360   0.61679   1.000
    Zn3     Zn   0.68386   0.61676   0.83360   1.000
    Zn4     Zn   0.68386   0.38321   0.16643   1.000
    Zn5     Zn   0.18385   0.33356   0.88324   1.000
    Zn6     Zn   0.18387   0.66639   0.11678   1.000
    Zn7     Zn   0.18386   0.11676   0.66643   1.000
    Zn8     Zn   0.18386   0.88321   0.33357   1.000
    Zn9     Zn   0.68385   0.83355   0.61679   1.000
    Zn10    Zn   0.68387   0.16639   0.38320   1.000
    Zn11    Zn   0.31613   0.38324   0.16640   1.000
    Zn12    Zn   0.31613   0.61679   0.83358   1.000
    Zn13    Zn   0.81614   0.66644   0.11678   1.000
    Zn14    Zn   0.81612   0.33361   0.88323   1.000
    Zn15    Zn   0.81613   0.88324   0.33358   1.000
    Ts16    Ts   0.85479   0.12445   0.65940   1.000
    Ts17    Ts   0.80588   0.13353   0.69494   1.000
    Ts18    Ts   0.81027   0.08322   0.66945   1.000
    Ts19    Ts   0.79360   0.12922   0.64076   1.000
    Ts20    Ts   0.35478   0.15941   0.37555   1.000
    Ts21    Ts   0.30589   0.19494   0.36648   1.000
    Ts22    Ts   0.31030   0.16945   0.41679   1.000
    Ts23    Ts   0.29359   0.14077   0.37079   1.000
    Ts24    Ts   0.35477   0.84065   0.62445   1.000
    Ts25    Ts   0.30586   0.80510   0.63353   1.000
    Ts26    Ts   0.31026   0.83060   0.58322   1.000
    Ts27    Ts   0.29358   0.85927   0.62922   1.000
    Ts28    Ts   0.64522   0.62442   0.84064   1.000
    Ts29    Ts   0.69411   0.63350   0.80509   1.000
    Ts30    Ts   0.68972   0.58319   0.83060   1.000
    Ts31    Ts   0.70641   0.62919   0.85927   1.000
    Ts32    Ts   0.64521   0.37554   0.15939   1.000
    Ts33    Ts   0.69411   0.36647   0.19493   1.000
    Ts34    Ts   0.68972   0.41678   0.16942   1.000
    Ts35    Ts   0.70640   0.37078   0.14075   1.000
    Ts36    Ts   0.14521   0.34059   0.87557   1.000
    Ts37    Ts   0.19410   0.30506   0.86650   1.000
    Ts38    Ts   0.18969   0.33056   0.91681   1.000
    Ts39    Ts   0.20640   0.35924   0.87080   1.000
    Ts40    Ts   0.14521   0.65935   0.12445   1.000
    Ts41    Ts   0.19412   0.69490   0.13352   1.000
    Ts42    Ts   0.18973   0.66940   0.08321   1.000
    Ts43    Ts   0.20639   0.64072   0.12921   1.000
    Ts44    Ts   0.14522   0.12442   0.65939   1.000
    Ts45    Ts   0.19411   0.13350   0.69494   1.000
    Ts46    Ts   0.18971   0.08319   0.66943   1.000
    Ts47    Ts   0.20641   0.12920   0.64076   1.000
    Ts48    Ts   0.14520   0.87554   0.34038   1.000
    Ts49    Ts   0.19411   0.86647   0.30505   1.000
    Ts50    Ts   0.18971   0.91678   0.33056   1.000
    Ts51    Ts   0.20639   0.87078   0.35925   1.000
    Ts52    Ts   0.64521   0.84059   0.62446   1.000
    Ts53    Ts   0.69410   0.80505   0.63353   1.000
    Ts54    Ts   0.68969   0.83055   0.58322   1.000
    Ts55    Ts   0.70640   0.85923   0.62922   1.000
    Ts56    Ts   0.64522   0.15935   0.37554   1.000
    Ts57    Ts   0.69413   0.19490   0.36647   1.000
    Ts58    Ts   0.68973   0.16940   0.41677   1.000
    Ts59    Ts   0.70640   0.14072   0.37077   1.000
    Ts60    Ts   0.35477   0.37558   0.15936   1.000
    Ts61    Ts   0.30588   0.36650   0.19491   1.000
    Ts62    Ts   0.31027   0.41681   0.16941   1.000
    Ts63    Ts   0.29358   0.37080   0.14073   1.000
    Ts64    Ts   0.35478   0.62445   0.84039   1.000
    Ts65    Ts   0.30587   0.63353   0.80508   1.000
    Ts66    Ts   0.31027   0.58322   0.83055   1.000
    Ts67    Ts   0.29359   0.62922   0.85926   1.000
    Ts68    Ts   0.85478   0.65940   0.12445   1.000
    Ts69    Ts   0.80589   0.69494   0.13352   1.000
    Ts70    Ts   0.81030   0.66944   0.08320   1.000
    Ts71    Ts   0.79359   0.64076   0.12921   1.000
    Ts72    Ts   0.85478   0.34065   0.87555   1.000
    Ts73    Ts   0.80586   0.30510   0.86649   1.000
    Ts74    Ts   0.81026   0.33060   0.91680   1.000
    Ts75    Ts   0.79360   0.35928   0.87079   1.000
    Ts76    Ts   0.85477   0.87558   0.34062   1.000
    Ts77    Ts   0.80588   0.86650   0.30505   1.000
    Ts78    Ts   0.81028   0.91681   0.33058   1.000
    Ts79    Ts   0.79358   0.87080   0.35925   1.000
loop_
    _geom_bond_atom_site_label_1
    _geom_bond_atom_site_label_2
    _geom_bond_distance
    _geom_bond_site_symmetry_2
    _ccdc_geom_bond_type
    Zn0    Ts16      0.66936      .   S
    Zn0    Ts17      0.66776      .   S
    Zn0    Ts18      0.66567      .   S
    Zn0    Ts19      0.67013      .   S
    Zn1    Ts20      0.66939      .   S
    Zn1    Ts21      0.66771      .   S
    Zn1    Ts22      0.66565      .   S
    Zn1    Ts23      0.67009      .   S
    Zn2    Ts24      0.66938      .   S
    Zn2    Ts25      0.66771      .   S
    Zn2    Ts26      0.66572      .   S
    Zn2    Ts27      0.67020      .   S
    Zn3    Ts28      0.66938      .   S
    Zn3    Ts29      0.66772      .   S
    Zn3    Ts30      0.66575      .   S
    Zn3    Ts31      0.67014      .   S
    Zn4    Ts32      0.66939      .   S
    Zn4    Ts33      0.66776      .   S
    Zn4    Ts34      0.66563      .   S
    Zn4    Ts35      0.67010      .   S
    Zn5    Ts36      0.66938      .   S
    Zn5    Ts37      0.66774      .   S
    Zn5    Ts38      0.66566      .   S
    Zn5    Ts39      0.67009      .   S
    Zn6    Ts40      0.66939      .   S
    Zn6    Ts41      0.66772      .   S
    Zn6    Ts42      0.66570      .   S
    Zn6    Ts43      0.67019      .   S
    Zn7    Ts44      0.66938      .   S
    Zn7    Ts45      0.66775      .   S
    Zn7    Ts46      0.66576      .   S
    Zn7    Ts47      0.67011      .   S
    Zn8    Ts48      0.66846      .   S
    Zn8    Ts49      0.66808      .   S
    Zn8    Ts50      0.66567      .   S
    Zn8    Ts51      0.67013      .   S
    Zn9    Ts52      0.66939      .   S
    Zn9    Ts53      0.66771      .   S
    Zn9    Ts54      0.66565      .   S
    Zn9    Ts55      0.67009      .   S
    Zn10   Ts56      0.66935      .   S
    Zn10   Ts57      0.66766      .   S
    Zn10   Ts58      0.66559      .   S
    Zn10   Ts59      0.67014      .   S
    Zn11   Ts60      0.66936      .   S
    Zn11   Ts61      0.66778      .   S
    Zn11   Ts62      0.66577      .   S
    Zn11   Ts63      0.67009      .   S
    Zn12   Ts64      0.66845      .   S
    Zn12   Ts65      0.66776      .   S
    Zn12   Ts66      0.66569      .   S
    Zn12   Ts67      0.67010      .   S
    Zn13   Ts68      0.66937      .   S
    Zn13   Ts69      0.66769      .   S
    Zn13   Ts70      0.66573      .   S
    Zn13   Ts71      0.67008      .   S
    Zn14   Ts72      0.66943      .   S
    Zn14   Ts73      0.66772      .   S
    Zn14   Ts74      0.66570      .   S
    Zn14   Ts75      0.67027      .   S
    Zn15   Ts76      0.66937      .   S
    Zn15   Ts77      0.66808      .   S
    Zn15   Ts78      0.66576      .   S
    Zn15   Ts79      0.67011      .   S
