# CIF file generated by openbabel 2.4.90, see http://openbabel.sf.net
data_I
_chemical_name_common ''
_cell_length_a 23.037
_cell_length_b 15.262
_cell_length_c 18.164
_cell_angle_alpha 89.982
_cell_angle_beta 90
_cell_angle_gamma 89.902
_space_group_name_H-M_alt 'P 1'
_space_group_name_Hall 'P 1'
loop_
    _symmetry_equiv_pos_as_xyz
    x,y,z
loop_
    _atom_site_label
    _atom_site_type_symbol
    _atom_site_fract_x
    _atom_site_fract_y
    _atom_site_fract_z
    _atom_site_occupancy
    Zr0     Zr   0.25001   0.55192   0.09709   1.000
    Zr1     Zr   0.75002   0.55192   0.09709   1.000
    Zr2     Zr   0.25000   0.44805   0.90280   1.000
    Zr3     Zr   0.75001   0.44805   0.90280   1.000
    Zr4     Zr   0.25001   0.94801   0.59705   1.000
    Zr5     Zr   0.75001   0.94801   0.59705   1.000
    Zr6     Zr   0.25000   0.05196   0.40290   1.000
    Zr7     Zr   0.75001   0.05196   0.40290   1.000
    N8      N    0.50001   0.55504   0.09499   1.000
    O9      O    0.39880   0.55384   0.09488   1.000
    O10     O    0.60122   0.55385   0.09489   1.000
    N11     N    0.50001   0.94486   0.59496   1.000
    O12     O    0.39880   0.94605   0.59485   1.000
    O13     O    0.60122   0.94606   0.59484   1.000
    N14     N    0.00001   0.94486   0.59495   1.000
    O15     O    0.89881   0.94605   0.59484   1.000
    O16     O    0.10122   0.94606   0.59484   1.000
    N17     N    0.25000   0.99999   0.99995   1.000
    O18     O    0.24999   0.79794   0.02750   1.000
    O19     O    0.24999   0.75760   0.95009   1.000
    O20     O    0.25001   0.97035   0.82572   1.000
    O21     O    0.25001   0.20203   0.97241   1.000
    O22     O    0.25002   0.24238   0.04982   1.000
    O23     O    0.25000   0.02962   0.17421   1.000
    N24     N    0.75002   0.99999   0.99995   1.000
    O25     O    0.75000   0.79794   0.02750   1.000
    O26     O    0.75000   0.75760   0.95009   1.000
    O27     O    0.75001   0.97035   0.82572   1.000
    O28     O    0.75002   0.20203   0.97241   1.000
    O29     O    0.75003   0.24238   0.04982   1.000
    O30     O    0.75001   0.02962   0.17421   1.000
    N31     N    0.00001   0.55504   0.09499   1.000
    O32     O    0.89880   0.55384   0.09488   1.000
    O33     O    0.10121   0.55385   0.09489   1.000
    N34     N    0.00000   0.05511   0.40497   1.000
    O35     O    0.89880   0.05391   0.40510   1.000
    O36     O    0.10121   0.05392   0.40510   1.000
    N37     N    0.00001   0.44493   0.90497   1.000
    O38     O    0.89881   0.44612   0.90506   1.000
    O39     O    0.10121   0.44613   0.90506   1.000
    N40     N    0.50000   0.05511   0.40497   1.000
    O41     O    0.39880   0.05391   0.40510   1.000
    O42     O    0.60121   0.05392   0.40510   1.000
    N43     N    0.50001   0.44493   0.90497   1.000
    O44     O    0.39880   0.44612   0.90506   1.000
    O45     O    0.60122   0.44613   0.90506   1.000
    N46     N    0.25000   0.49999   0.49998   1.000
    O47     O    0.25002   0.70201   0.52749   1.000
    O48     O    0.25002   0.74240   0.45012   1.000
    O49     O    0.25000   0.52962   0.32575   1.000
    O50     O    0.24999   0.29796   0.47246   1.000
    O51     O    0.24999   0.25758   0.54983   1.000
    O52     O    0.25000   0.47035   0.67419   1.000
    N53     N    0.75001   0.49999   0.49998   1.000
    O54     O    0.75002   0.70201   0.52749   1.000
    O55     O    0.75003   0.74240   0.45012   1.000
    O56     O    0.75001   0.52962   0.32575   1.000
    O57     O    0.75000   0.29796   0.47246   1.000
    O58     O    0.75000   0.25758   0.54983   1.000
    O59     O    0.75001   0.47035   0.67419   1.000
loop_
    _geom_bond_atom_site_label_1
    _geom_bond_atom_site_label_2
    _geom_bond_distance
    _geom_bond_site_symmetry_2
    _ccdc_geom_bond_type
    N8     O9        2.33160      .   S
    Zr0    O9        3.42818      .   S
    N8     O10       2.33161      .   S
    Zr1    O10       3.42821      .   S
    N11    O12       2.33160      .   S
    Zr4    O12       3.42819      .   S
    N11    O13       2.33161      .   S
    Zr5    O13       3.42818      .   S
    N14    O15       2.33150  1_455   S
    Zr5    O15       3.42809      .   S
    N14    O16       2.33150      .   S
    Zr4    O16       3.42808      .   S
    N17    O18       3.12378  1_556   S
    Zr0    O18       3.96147      .   S
    N17    O19       3.80889      .   S
    Zr2    O19       4.80196      .   S
    N17    O20       3.19704      .   S
    Zr4    O20       4.16768      .   S
    N17    O21       3.12375  1_565   S
    Zr2    O21       3.96163      .   S
    N17    O22       3.80893  1_566   S
    Zr0    O22       4.80187      .   S
    N17    O23       3.19751  1_566   S
    Zr6    O23       4.16797      .   S
    N24    O25       3.12378  1_556   S
    Zr1    O25       3.96147      .   S
    N24    O26       3.80889      .   S
    Zr3    O26       4.80196      .   S
    N24    O27       3.19704      .   S
    Zr5    O27       4.16768      .   S
    N24    O28       3.12375  1_565   S
    Zr3    O28       3.96163      .   S
    N24    O29       3.80893  1_566   S
    Zr1    O29       4.80187      .   S
    N24    O30       3.19751  1_566   S
    Zr7    O30       4.16797      .   S
    N31    O32       2.33148  1_455   S
    Zr1    O32       3.42806      .   S
    N31    O33       2.33150      .   S
    Zr0    O33       3.42810      .   S
    N34    O35       2.33150  1_455   S
    Zr7    O35       3.42808      .   S
    N34    O36       2.33149      .   S
    Zr6    O36       3.42810      .   S
    N37    O38       2.33150  1_455   S
    Zr3    O38       3.42812      .   S
    N37    O39       2.33148      .   S
    Zr2    O39       3.42808      .   S
    N40    O41       2.33161      .   S
    Zr6    O41       3.42817      .   S
    N40    O42       2.33160      .   S
    Zr7    O42       3.42819      .   S
    N43    O44       2.33161      .   S
    Zr2    O44       3.42822      .   S
    N43    O45       2.33159      .   S
    Zr3    O45       3.42818      .   S
    N46    O47       3.12366      .   S
    Zr4    O47       3.96173      .   S
    N46    O48       3.80858      .   S
    Zr6    O48       4.80158  1_545   S
    N46    O49       3.19669      .   S
    Zr0    O49       4.16715      .   S
    N46    O50       3.12365      .   S
    Zr6    O50       3.96177      .   S
    N46    O51       3.80860      .   S
    Zr4    O51       4.80157  1_565   S
    N46    O52       3.19641      .   S
    Zr2    O52       4.16633      .   S
    N53    O54       3.12366      .   S
    Zr5    O54       3.96173      .   S
    N53    O55       3.80858      .   S
    Zr7    O55       4.80158  1_545   S
    N53    O56       3.19669      .   S
    Zr1    O56       4.16715      .   S
    N53    O57       3.12365      .   S
    Zr7    O57       3.96177      .   S
    N53    O58       3.80860      .   S
    Zr5    O58       4.80156  1_565   S
    N53    O59       3.19645      .   S
    Zr3    O59       4.16628      .   S
