# CIF file generated by openbabel 2.4.90, see http://openbabel.sf.net
data_I
_chemical_name_common ''
_cell_length_a 13.544
_cell_length_b 14.801
_cell_length_c 21.599
_cell_angle_alpha 89.493
_cell_angle_beta 89.904
_cell_angle_gamma 90.087
_space_group_name_H-M_alt 'P 1'
_space_group_name_Hall 'P 1'
loop_
    _symmetry_equiv_pos_as_xyz
    x,y,z
loop_
    _atom_site_label
    _atom_site_type_symbol
    _atom_site_fract_x
    _atom_site_fract_y
    _atom_site_fract_z
    _atom_site_occupancy
    N0      N    0.00001   0.00001   0.99998   1.000
    N1      N    0.50442   0.31355   0.28359   1.000
    N2      N    0.00001   0.50001   0.49998   1.000
    N3      N    0.50363   0.18475   0.78340   1.000
    N4      N    0.50002   0.50001   0.99999   1.000
    N5      N    0.50001   0.00002   0.50000   1.000
    N6      N    0.49559   0.68648   0.71636   1.000
    N7      N    0.99468   0.68449   0.78335   1.000
    N8      N    0.99422   0.81357   0.28359   1.000
    N9      N    0.00344   0.31551   0.21662   1.000
    N10     N    0.49640   0.81539   0.21657   1.000
    N11     N    0.00451   0.18643   0.71638   1.000
    Zr12    Zr   0.50003   0.50007   0.49999   1.000
    O13     O    0.49976   0.35159   0.61350   1.000
    O14     O    0.50380   0.41737   0.41949   1.000
    O15     O    0.49623   0.58273   0.58048   1.000
    O16     O    0.50029   0.64859   0.38648   1.000
    Zr17    Zr   0.99909   0.00000   0.49999   1.000
    O18     O    0.99822   0.85137   0.61346   1.000
    O19     O    0.99542   0.91734   0.41949   1.000
    O20     O    0.00336   0.08267   0.58048   1.000
    O21     O    0.99927   0.14863   0.38651   1.000
    Zr22    Zr   0.99954   0.50000   0.99998   1.000
    O23     O    0.99833   0.64675   0.11383   1.000
    O24     O    0.99588   0.58259   0.91962   1.000
    O25     O    0.00320   0.41741   0.08035   1.000
    O26     O    0.00026   0.35326   0.88613   1.000
    Zr27    Zr   0.50002   1.00000   0.99997   1.000
    O28     O    0.49958   0.85327   0.88612   1.000
    O29     O    0.49643   0.91737   0.08033   1.000
    O30     O    0.50359   0.08266   0.91963   1.000
    O31     O    0.50045   0.14673   0.11383   1.000
    O32     O    0.14488   0.50091   0.99933   1.000
    O33     O    0.85468   0.49910   0.00063   1.000
    O34     O    0.35492   0.00089   0.99934   1.000
    O35     O    0.64511   0.99911   0.00061   1.000
    O36     O    0.35495   0.49920   0.49933   1.000
    O37     O    0.64509   0.50089   0.50064   1.000
    O38     O    0.85449   0.00086   0.50065   1.000
    O39     O    0.14462   0.99916   0.49933   1.000
loop_
    _geom_bond_atom_site_label_1
    _geom_bond_atom_site_label_2
    _geom_bond_distance
    _geom_bond_site_symmetry_2
    _ccdc_geom_bond_type
    Zr12   O13       3.27800      .   S
    N3     O13       4.40543      .   S
    Zr12   O14       2.13586      .   S
    N1     O14       3.32511      .   S
    Zr12   O15       2.13522      .   S
    N6     O15       3.32444      .   S
    Zr12   O16       3.27832      .   S
    N10    O16       4.40516      .   S
    Zr17   O18       3.27887  1_545   S
    N7     O18       4.40528      .   S
    Zr17   O19       2.13542  1_545   S
    N8     O19       3.32486      .   S
    Zr17   O20       2.13563  1_655   S
    N11    O20       3.32477      .   S
    Zr17   O21       3.27889      .   S
    N9     O21       4.40540  1_455   S
    Zr22   O23       3.29537  1_556   S
    N8     O23       4.43896      .   S
    Zr22   O24       2.11475      .   S
    N7     O24       3.29543      .   S
    Zr22   O25       2.11487  1_656   S
    N9     O25       3.29547      .   S
    Zr22   O26       3.29538  1_655   S
    N11    O26       4.43876      .   S
    Zr27   O28       3.29519      .   S
    N6     O28       4.43860      .   S
    Zr27   O29       2.11471  1_556   S
    N10    O29       3.29548      .   S
    Zr27   O30       2.11487  1_565   S
    N3     O30       3.29585      .   S
    Zr27   O31       3.29541  1_566   S
    N1     O31       4.43889      .   S
    N4     O32       4.81006      .   S
    Zr22   O32       1.96848  1_655   S
    N4     O33       4.80367  1_556   S
    Zr22   O33       1.96207  1_556   S
    N0     O34       4.80686      .   S
    Zr27   O34       1.96527  1_565   S
    N0     O35       4.80685  1_446   S
    Zr27   O35       1.96528  1_556   S
    Zr12   O36       1.96497      .   S
    N2     O36       4.80731      .   S
    Zr12   O37       1.96483      .   S
    N2     O37       4.80715  1_455   S
    N5     O38       4.80100      .   S
    Zr17   O38       1.95865      .   S
    N5     O39       4.81348  1_545   S
    Zr17   O39       1.97113  1_645   S
