# CIF file generated by openbabel 2.4.90, see http://openbabel.sf.net
data_I
_chemical_name_common ''
_cell_length_a 13.79
_cell_length_b 14.367
_cell_length_c 21.456
_cell_angle_alpha 90.118
_cell_angle_beta 90.021
_cell_angle_gamma 89.909
_space_group_name_H-M_alt 'P 1'
_space_group_name_Hall 'P 1'
loop_
    _symmetry_equiv_pos_as_xyz
    x,y,z
loop_
    _atom_site_label
    _atom_site_type_symbol
    _atom_site_fract_x
    _atom_site_fract_y
    _atom_site_fract_z
    _atom_site_occupancy
    Zn0     Zn   0.47076   0.59784   0.55753   1.000
    Zn1     Zn   0.47085   0.90229   0.05843   1.000
    Zn2     Zn   0.52924   0.40218   0.44245   1.000
    Zn3     Zn   0.97077   0.90221   0.44246   1.000
    Zn4     Zn   0.02917   0.40223   0.05843   1.000
    Zn5     Zn   0.02924   0.09781   0.55752   1.000
    Zn6     Zn   0.97083   0.59778   0.94155   1.000
    H7      H    0.47078   0.38028   0.81930   1.000
    H8      H    0.54541   0.21403   0.74217   1.000
    H9      H    0.47919   0.41601   0.70617   1.000
    H10     H    0.55963   0.25411   0.62699   1.000
    H11     H    0.36039   0.02917   0.86334   1.000
    H12     H    0.18042   0.02695   0.86154   1.000
    H13     H    0.18558   0.17608   0.03671   1.000
    H14     H    0.36644   0.17243   0.03065   1.000
    H15     H    0.03602   0.14468   0.99597   1.000
    H16     H    0.01936   0.02496   0.87665   1.000
    H17     H    0.71161   0.15111   0.02179   1.000
    H18     H    0.89115   0.14308   0.01579   1.000
    H19     H    0.85663   0.00339   0.83789   1.000
    H20     H    0.67753   0.01993   0.85182   1.000
    H21     H    0.52979   0.88100   0.68149   1.000
    H22     H    0.45368   0.71414   0.75680   1.000
    H23     H    0.52092   0.91514   0.79443   1.000
    H24     H    0.43939   0.75382   0.87296   1.000
    H25     H    0.63944   0.53020   0.63610   1.000
    H26     H    0.81943   0.52835   0.63835   1.000
    H27     H    0.81448   0.67611   0.46308   1.000
    H28     H    0.63364   0.67220   0.46800   1.000
    H29     H    0.96388   0.64540   0.50423   1.000
    H30     H    0.98074   0.52513   0.62298   1.000
    H31     H    0.28781   0.65068   0.47777   1.000
    Zn32    Zn   0.52916   0.09772   0.94156   1.000
    H33     H    0.10837   0.64285   0.48400   1.000
    H34     H    0.14373   0.50402   0.66178   1.000
    H35     H    0.32276   0.52018   0.64757   1.000
    H36     H    0.52922   0.61974   0.18062   1.000
    H37     H    0.45460   0.78599   0.25781   1.000
    H38     H    0.52081   0.58401   0.29381   1.000
    H39     H    0.44038   0.74591   0.37299   1.000
    H40     H    0.63961   0.97084   0.13665   1.000
    H41     H    0.81959   0.97306   0.13844   1.000
    H42     H    0.81442   0.82393   0.96328   1.000
    H43     H    0.63357   0.82759   0.96933   1.000
    H44     H    0.96398   0.85534   0.00401   1.000
    H45     H    0.98065   0.97505   0.12334   1.000
    H46     H    0.28839   0.84891   0.97819   1.000
    H47     H    0.10885   0.85694   0.98420   1.000
    H48     H    0.14338   0.99663   0.16209   1.000
    H49     H    0.32248   0.98008   0.14816   1.000
    H50     H    0.47023   0.11902   0.31849   1.000
    H51     H    0.54632   0.28588   0.24310   1.000
    H52     H    0.47910   0.08487   0.20556   1.000
    H53     H    0.56061   0.24620   0.12702   1.000
    H54     H    0.36056   0.46981   0.36387   1.000
    H55     H    0.18057   0.47166   0.36164   1.000
    H56     H    0.18553   0.32391   0.53690   1.000
    H57     H    0.36636   0.32782   0.53129   1.000
    H58     H    0.03612   0.35461   0.49576   1.000
    H59     H    0.01926   0.47489   0.37701   1.000
    H60     H    0.71219   0.34933   0.52220   1.000
    H61     H    0.89164   0.35717   0.51598   1.000
    H62     H    0.85627   0.49601   0.33821   1.000
    H63     H    0.67724   0.47985   0.35242   1.000
    H64     H    0.00000   0.61879   0.31857   1.000
    H65     H    0.95389   0.78608   0.24318   1.000
    H66     H    0.00000   0.58472   0.20562   1.000
    H67     H    0.93959   0.74645   0.12700   1.000
    H68     H    0.13910   0.96948   0.36378   1.000
    H69     H    0.31909   0.97144   0.36157   1.000
    H70     H    0.31488   0.82405   0.53697   1.000
    H71     H    0.13401   0.82792   0.53136   1.000
    H72     H    0.46411   0.85463   0.49570   1.000
    H73     H    0.48039   0.97512   0.37708   1.000
    H74     H    0.78809   0.84947   0.52222   1.000
    H75     H    0.60861   0.85735   0.51601   1.000
    H76     H    0.64329   0.99621   0.33825   1.000
    H77     H    0.82239   0.98000   0.35243   1.000
    H78     H    0.97051   0.11968   0.18058   1.000
    H79     H    0.04557   0.28560   0.25773   1.000
    H80     H    0.97899   0.08396   0.29376   1.000
    H81     H    0.05968   0.24556   0.37292   1.000
    H82     H    0.86027   0.47084   0.13657   1.000
    H83     H    0.68029   0.47294   0.13837   1.000
    H84     H    0.68584   0.32404   0.96312   1.000
    H85     H    0.86668   0.32775   0.96919   1.000
    H86     H    0.53618   0.35535   0.00386   1.000
    H87     H    0.51925   0.47459   0.12339   1.000
    H88     H    0.21170   0.34897   0.97800   1.000
    H89     H    0.39121   0.35696   0.98408   1.000
    H90     H    0.35652   0.49589   0.16225   1.000
    H91     H    0.17746   0.47940   0.14833   1.000
    H92     H    0.97059   0.38123   0.68142   1.000
    H93     H    0.04611   0.21394   0.75680   1.000
    H94     H    0.97934   0.41530   0.79437   1.000
    H95     H    0.06041   0.25357   0.87299   1.000
    H96     H    0.86091   0.03054   0.63621   1.000
    H97     H    0.68092   0.02858   0.63842   1.000
    H98     H    0.68512   0.17596   0.46302   1.000
    H99     H    0.86599   0.17209   0.46862   1.000
    C100    C    0.28170   0.93913   0.40066   1.000
    C101    C    0.33356   0.89835   0.45020   1.000
    C102    C    0.27823   0.85745   0.49792   1.000
    C103    C    0.17778   0.85991   0.49515   1.000
    H104    H    0.53589   0.14538   0.50424   1.000
    H105    H    0.51962   0.02490   0.62291   1.000
    H106    H    0.21191   0.15055   0.47776   1.000
    H107    H    0.39139   0.14267   0.48398   1.000
    H108    H    0.35672   0.00382   0.66174   1.000
    H109    H    0.17762   0.02003   0.64756   1.000
    H110    H    0.00000   0.88034   0.81941   1.000
    H111    H    0.95443   0.71442   0.74226   1.000
    H112    H    0.00000   0.91605   0.70622   1.000
    H113    H    0.94032   0.75446   0.62706   1.000
    H114    H    0.13974   0.52918   0.86341   1.000
    H115    H    0.31972   0.52708   0.86161   1.000
    H116    H    0.31416   0.67598   0.03687   1.000
    H117    H    0.13332   0.67226   0.03079   1.000
    H118    H    0.46382   0.64467   0.99613   1.000
    H119    H    0.48075   0.52543   0.87659   1.000
    H120    H    0.78831   0.65105   0.02189   1.000
    H121    H    0.60879   0.64306   0.01590   1.000
    H122    H    0.64348   0.50413   0.83773   1.000
    H123    H    0.82254   0.52062   0.85160   1.000
    C124    C    0.50809   0.24903   0.86509   1.000
    C125    C    0.49695   0.30995   0.80945   1.000
    C126    C    0.51870   0.28475   0.75034   1.000
    C127    C    0.50799   0.34603   0.69770   1.000
    C128    C    0.53040   0.32267   0.63831   1.000
    C129    C    0.51632   0.38672   0.58485   1.000
    C130    C    0.31852   0.06039   0.90105   1.000
    C131    C    0.21799   0.05975   0.90049   1.000
    C132    C    0.17740   0.63992   0.99472   1.000
    C133    C    0.43863   0.60489   0.95584   1.000
    C134    C    0.50443   0.56558   0.91715   1.000
    C135    C    0.75261   0.61979   0.98173   1.000
    C136    C    0.65239   0.61492   0.97782   1.000
    C137    C    0.16639   0.10101   0.95008   1.000
    C138    C    0.22200   0.14235   0.99761   1.000
    C139    C    0.32244   0.14003   0.99400   1.000
    C140    C    0.06130   0.10478   0.95574   1.000
    C141    C    0.99561   0.06528   0.91714   1.000
    C142    C    0.74735   0.11969   0.98168   1.000
    C143    C    0.84757   0.11481   0.97776   1.000
    C144    C    0.89090   0.07290   0.92522   1.000
    C145    C    0.82772   0.03764   0.87934   1.000
    C146    C    0.72805   0.04632   0.88663   1.000
    C147    C    0.49199   0.75096   0.63418   1.000
    C148    C    0.50315   0.81071   0.69054   1.000
    C149    C    0.48087   0.78473   0.74934   1.000
    C150    C    0.49167   0.84536   0.80245   1.000
    C151    C    0.46903   0.82209   0.86175   1.000
    C152    C    0.48361   0.88640   0.91521   1.000
    C153    C    0.68136   0.56118   0.59840   1.000
    C154    C    0.78189   0.56075   0.59929   1.000
    C155    C    0.83354   0.60167   0.54977   1.000
    C156    C    0.77800   0.64263   0.50210   1.000
    C157    C    0.67757   0.64012   0.50487   1.000
    C158    C    0.93862   0.60542   0.54420   1.000
    C159    C    0.00436   0.56565   0.58270   1.000
    C160    C    0.25230   0.61949   0.51790   1.000
    C161    C    0.15211   0.61477   0.52198   1.000
    C162    C    0.10905   0.57317   0.57455   1.000
    C163    C    0.17244   0.53804   0.62032   1.000
    C164    C    0.27206   0.54652   0.61287   1.000
    C165    C    0.49192   0.75099   0.13490   1.000
    C166    C    0.50305   0.69007   0.19053   1.000
    C167    C    0.48131   0.71527   0.24964   1.000
    C168    C    0.49201   0.65399   0.30228   1.000
    C169    C    0.46961   0.67735   0.36168   1.000
    C170    C    0.48369   0.61329   0.41514   1.000
    C171    C    0.68148   0.93962   0.09894   1.000
    C172    C    0.78202   0.94026   0.09950   1.000
    C173    C    0.83361   0.89901   0.04990   1.000
    C174    C    0.77801   0.85767   0.00237   1.000
    C175    C    0.67757   0.85999   0.00539   1.000
    C176    C    0.93870   0.89524   0.04424   1.000
    C177    C    0.00439   0.93473   0.08285   1.000
    C178    C    0.25265   0.88032   0.01830   1.000
    C179    C    0.15243   0.88521   0.02223   1.000
    C180    C    0.10911   0.92711   0.07477   1.000
    C181    C    0.17229   0.96238   0.12060   1.000
    C182    C    0.27195   0.95370   0.11335   1.000
    C183    C    0.50802   0.24906   0.36581   1.000
    C184    C    0.49686   0.18931   0.30940   1.000
    C185    C    0.51914   0.21529   0.25064   1.000
    C186    C    0.50833   0.15466   0.19753   1.000
    C187    C    0.53098   0.17792   0.13823   1.000
    C188    C    0.51640   0.11362   0.08477   1.000
    C189    C    0.31864   0.43883   0.40151   1.000
    C190    C    0.21812   0.43927   0.40070   1.000
    C191    C    0.16646   0.39835   0.45020   1.000
    C192    C    0.22200   0.35739   0.49788   1.000
    C193    C    0.32244   0.35989   0.49511   1.000
    C194    C    0.06138   0.39459   0.45571   1.000
    C195    C    0.99564   0.43437   0.41720   1.000
    C196    C    0.74770   0.38053   0.48208   1.000
    C197    C    0.84790   0.38524   0.47801   1.000
    C198    C    0.89096   0.42685   0.42544   1.000
    C199    C    0.82756   0.46198   0.37967   1.000
    C200    C    0.72794   0.45350   0.38711   1.000
    C201    C    0.99193   0.74906   0.36583   1.000
    C202    C    0.00000   0.68922   0.30949   1.000
    C203    C    0.98087   0.71533   0.25060   1.000
    C204    C    0.99160   0.65465   0.19756   1.000
    C205    C    0.96907   0.67803   0.13820   1.000
    C206    C    0.98357   0.61360   0.08482   1.000
    C207    C    0.18118   0.93863   0.40146   1.000
    C208    C    0.43866   0.89466   0.45572   1.000
    C209    C    0.50422   0.93452   0.41732   1.000
    C210    C    0.75243   0.88067   0.48209   1.000
    C211    C    0.65221   0.88541   0.47803   1.000
    C212    C    0.60894   0.92702   0.42547   1.000
    C213    C    0.67216   0.96216   0.37970   1.000
    C214    C    0.77183   0.95366   0.38713   1.000
    C215    C    0.00806   0.25070   0.13480   1.000
    C216    C    0.99684   0.18988   0.19046   1.000
    C217    C    0.01871   0.21501   0.24957   1.000
    C218    C    0.00791   0.15381   0.30220   1.000
    C219    C    0.03036   0.17711   0.36162   1.000
    C220    C    0.01620   0.11318   0.41511   1.000
    C221    C    0.81848   0.43962   0.09885   1.000
    C222    C    0.71794   0.44020   0.09942   1.000
    C223    C    0.66646   0.39896   0.04980   1.000
    C224    C    0.72217   0.35773   0.00224   1.000
    C225    C    0.82260   0.36010   0.00526   1.000
    C226    C    0.56137   0.39513   0.04414   1.000
    C227    C    0.49558   0.43444   0.08283   1.000
    C228    C    0.24740   0.38022   0.01825   1.000
    C229    C    0.34761   0.38510   0.02210   1.000
    C230    C    0.39088   0.42680   0.07477   1.000
    C231    C    0.32766   0.46184   0.12074   1.000
    C232    C    0.22801   0.45319   0.11345   1.000
    C233    C    0.00807   0.25096   0.63416   1.000
    C234    C    0.99702   0.31080   0.69000   1.000
    C235    C    0.01913   0.28468   0.74932   1.000
    C236    C    0.00840   0.34537   0.80242   1.000
    C237    C    0.03093   0.32199   0.86174   1.000
    C238    C    0.01643   0.38641   0.91516   1.000
    C239    C    0.81883   0.06139   0.59853   1.000
    C240    C    0.71830   0.06089   0.59933   1.000
    C241    C    0.66645   0.10167   0.54976   1.000
    C242    C    0.72177   0.14256   0.50206   1.000
    C243    C    0.82222   0.14010   0.50483   1.000
    C244    C    0.56134   0.10536   0.54426   1.000
    C245    C    0.49579   0.06550   0.58260   1.000
    C246    C    0.24758   0.11934   0.51789   1.000
    C247    C    0.34779   0.11461   0.52190   1.000
    C248    C    0.39106   0.07300   0.57452   1.000
    C249    C    0.32784   0.03787   0.62029   1.000
    C250    C    0.22818   0.04636   0.61286   1.000
    C251    C    0.99194   0.74932   0.86518   1.000
    C252    C    0.00000   0.81013   0.80952   1.000
    C253    C    0.98130   0.78500   0.75042   1.000
    C254    C    0.99210   0.84621   0.69776   1.000
    C255    C    0.96964   0.82291   0.63836   1.000
    C256    C    0.98381   0.88683   0.58487   1.000
    C257    C    0.18152   0.56039   0.90113   1.000
    C258    C    0.28206   0.55982   0.90057   1.000
    C259    C    0.33355   0.60105   0.95018   1.000
    C260    C    0.27783   0.64228   0.99770   1.000
    C261    C    0.60913   0.57322   0.92520   1.000
    C262    C    0.67234   0.53818   0.87925   1.000
    C263    C    0.77199   0.54683   0.88653   1.000
    N264    N    0.37118   0.09913   0.94753   1.000
    N265    N    0.68724   0.08668   0.93708   1.000
    N266    N    0.62877   0.59939   0.55180   1.000
    N267    N    0.31264   0.58658   0.56230   1.000
    N268    N    0.62882   0.90089   0.05246   1.000
    N269    N    0.31277   0.91334   0.06290   1.000
    N270    N    0.37124   0.40062   0.44817   1.000
    N271    N    0.68737   0.41344   0.43760   1.000
    N272    N    0.12878   0.90050   0.44815   1.000
    N273    N    0.81260   0.91361   0.43762   1.000
    N274    N    0.87124   0.40098   0.05235   1.000
    N275    N    0.18724   0.41302   0.06294   1.000
    N276    N    0.87123   0.09952   0.55183   1.000
    N277    N    0.18741   0.08641   0.56237   1.000
    N278    N    0.12877   0.59904   0.94763   1.000
    N279    N    0.81276   0.58699   0.93700   1.000
    O280    O    0.52541   0.16170   0.85596   1.000
    O281    O    0.50003   0.28607   0.91820   1.000
    O282    O    0.47561   0.46484   0.59470   1.000
    O283    O    0.54580   0.35578   0.53211   1.000
    O284    O    0.47452   0.66357   0.64250   1.000
    O285    O    0.50012   0.78908   0.58154   1.000
    O286    O    0.52442   0.96422   0.90491   1.000
    O287    O    0.45448   0.85613   0.96809   1.000
    O288    O    0.47459   0.83832   0.14402   1.000
    O289    O    0.49998   0.71395   0.08178   1.000
    O290    O    0.52439   0.53518   0.40521   1.000
    O291    O    0.45421   0.64424   0.46788   1.000
    O292    O    0.52549   0.33645   0.35740   1.000
    O293    O    0.49988   0.21094   0.41844   1.000
    O294    O    0.47559   0.03580   0.09507   1.000
    O295    O    0.54553   0.14389   0.03189   1.000
    O296    O    0.97453   0.83650   0.35748   1.000
    O297    O    0.00000   0.71095   0.41848   1.000
    O298    O    0.02430   0.53565   0.09521   1.000
    O299    O    0.95446   0.64391   0.03191   1.000
    O300    O    0.02550   0.33796   0.14393   1.000
    O301    O    0.00000   0.21363   0.08170   1.000
    O302    O    0.97545   0.03520   0.40522   1.000
    O303    O    0.04566   0.14413   0.46785   1.000
    O304    O    0.02547   0.16352   0.64250   1.000
    O305    O    0.99991   0.28906   0.58150   1.000
    O306    O    0.97571   0.46437   0.90477   1.000
    O307    O    0.04554   0.35611   0.96807   1.000
    O308    O    0.97450   0.66206   0.85606   1.000
    O309    O    0.00000   0.78638   0.91828   1.000
    O310    O    0.02455   0.96482   0.59476   1.000
    O311    O    0.95435   0.85589   0.53214   1.000
loop_
    _geom_bond_atom_site_label_1
    _geom_bond_atom_site_label_2
    _geom_bond_distance
    _geom_bond_site_symmetry_2
    _ccdc_geom_bond_type
    C224   C225      1.38694      .   S
    C224   C223      1.40680      .   S
    C224   H84       1.09022  1_554   S
    C174   C175      1.38695      .   S
    C174   C173      1.40679      .   S
    C174   H42       1.09014  1_554   S
    H86    C226      1.09208      .   S
    H44    C176      1.09215      .   S
    C225   N274      1.34680      .   S
    C225   H85       1.08734  1_554   S
    C175   N268      1.34680      .   S
    C175   H43       1.08744  1_554   S
    H18    C143      1.09129  1_554   S
    H121   C136      1.09123  1_554   S
    C228   C229      1.38627      .   S
    C228   N275      1.35167      .   S
    C228   H88       1.09024  1_554   S
    C178   C179      1.38635      .   S
    C178   N269      1.35156      .   S
    C178   H46       1.08867  1_554   S
    H17    C142      1.08868  1_554   S
    H120   C135      1.08870  1_554   S
    C229   C230      1.41063      .   S
    C229   H89       1.09027  1_554   S
    C179   C180      1.40952      .   S
    C179   H47       1.09130  1_554   S
    H14    C139      1.09647  1_554   S
    H117   C132      1.08735  1_554   S
    O295   C188      1.28095      .   S
    O295   Zn32      2.05963  1_554   S
    O299   C206      1.28084      .   S
    O299   Zn6       2.05995  1_554   S
    H13    C138      1.09030  1_554   S
    H116   C260      1.09103  1_554   S
    C226   C223      1.45522      .   S
    C226   C227      1.35216      .   S
    C176   C173      1.45523      .   S
    C176   C177      1.35205  1_655   S
    C223   C222      1.40950      .   S
    C173   C172      1.40950      .   S
    N274   Zn4       2.18187  1_655   S
    N274   C221      1.35277      .   S
    N268   Zn1       2.18237      .   S
    N268   C171      1.35278      .   S
    Zn1    N269      2.18752      .   S
    Zn1    O294      2.07258  1_565   S
    Zn1    O288      2.05589      .   S
    Zn1    O287      2.05984  1_554   S
    Zn4    N275      2.18768      .   S
    Zn4    O298      2.07231      .   S
    Zn4    O300      2.05620      .   S
    Zn4    O307      2.05995  1_554   S
    N269   C182      1.34968      .   S
    N275   C232      1.34962      .   S
    C180   C177      1.45841      .   S
    C180   C181      1.40760      .   S
    C230   C227      1.45837      .   S
    C230   C231      1.40836      .   S
    O301   C215      1.26160      .   S
    O289   C165      1.26174      .   S
    C227   H87       1.09318      .   S
    C177   H45       1.09312  1_455   S
    C188   O294      1.27218      .   S
    C188   C187      1.48518      .   S
    C206   O298      1.27219  1_655   S
    C206   C205      1.48447      .   S
    C221   C222      1.38647      .   S
    C221   H82       1.08955      .   S
    C171   C172      1.38648      .   S
    C171   H40       1.08957      .   S
    C222   H83       1.08960      .   S
    C172   H41       1.08967      .   S
    C182   C181      1.38862      .   S
    C182   H49       1.08913      .   S
    C232   C231      1.38872      .   S
    C232   H91       1.08916      .   S
    C181   H48       1.09149      .   S
    C231   H90       1.09066      .   S
    H67    C205      1.09041      .   S
    H53    C187      1.09065      .   S
    C215   O300      1.29135      .   S
    C215   C216      1.48947  1_455   S
    C165   O288      1.29129      .   S
    C165   C166      1.48936      .   S
    C205   C204      1.35373      .   S
    C187   C186      1.35294      .   S
    H78    C216      1.09280      .   S
    H36    C166      1.09286      .   S
    C216   C217      1.35202  1_655   S
    C166   C167      1.35188      .   S
    C186   H52       1.09518      .   S
    C186   C185      1.44073      .   S
    C204   H66       1.02625  1_655   S
    C204   C203      1.43968      .   S
    H51    C185      1.09420      .   S
    H65    C203      1.09373      .   S
    C217   H79       1.09399      .   S
    C217   C218      1.44055      .   S
    C167   H37       1.09397      .   S
    C167   C168      1.44094      .   S
    C203   C202      1.34471  1_655   S
    C185   C184      1.35121      .   S
    H80    C218      1.09509  1_655   S
    H38    C168      1.09519      .   S
    C218   C219      1.35338      .   S
    C168   C169      1.35299      .   S
    C184   H50       1.09305      .   S
    C184   C183      1.49048      .   S
    C202   H64       1.03092      .   S
    C202   C201      1.48598  1_455   S
    H62    C199      1.09073      .   S
    H76    C213      1.09076      .   S
    H63    C200      1.08903      .   S
    H77    C214      1.08907      .   S
    O292   C183      1.29181      .   S
    O292   Zn2       2.05369      .   S
    O296   C201      1.29150      .   S
    O296   Zn3       2.05212      .   S
    H69    C100      1.08965      .   S
    C219   H81       1.09067      .   S
    C219   C220      1.48458      .   S
    H55    C190      1.08975      .   S
    C169   H39       1.09063      .   S
    C169   C170      1.48455      .   S
    H68    C207      1.08952      .   S
    H54    C189      1.08956      .   S
    C183   O293      1.26114      .   S
    C201   O297      1.26112  1_655   S
    H59    C195      1.09159  1_455   S
    H73    C209      1.09313      .   S
    C199   C200      1.38868      .   S
    C199   C198      1.40830      .   S
    C213   C214      1.38873      .   S
    C213   C212      1.40830      .   S
    C200   N271      1.34979      .   S
    C214   N273      1.34976      .   S
    C100   C207      1.38640      .   S
    C100   C101      1.40895      .   S
    C190   C189      1.38640      .   S
    C190   C191      1.40907      .   S
    C207   N272      1.35273      .   S
    C189   N270      1.35280      .   S
    O290   C170      1.27167      .   S
    O290   Zn2       2.07355      .   S
    O302   C220      1.27159  1_655   S
    O302   Zn3       2.07369  1_545   S
    C220   O303      1.28114      .   S
    C170   O291      1.28106      .   S
    C195   C198      1.45869      .   S
    C195   C194      1.35307  1_655   S
    C209   C212      1.45850      .   S
    C209   C208      1.35211      .   S
    C198   C197      1.40948      .   S
    C212   C211      1.40943      .   S
    N271   Zn2       2.18929      .   S
    N271   C196      1.35151      .   S
    N273   Zn3       2.18949      .   S
    N273   C210      1.35147      .   S
    Zn2    N270      2.18260      .   S
    Zn2    O283      2.04983      .   S
    Zn3    N272      2.18242  1_655   S
    Zn3    O311      2.05003      .   S
    N272   C103      1.34690      .   S
    N270   C193      1.34677      .   S
    C101   C208      1.45506      .   S
    C101   C102      1.40722      .   S
    C191   C194      1.45502      .   S
    C191   C192      1.40709      .   S
    C194   H58       1.09205      .   S
    C208   H72       1.09129      .   S
    H98    C242      1.08990      .   S
    H27    C156      1.08997      .   S
    O303   Zn5       2.04983      .   S
    O291   Zn0       2.04963      .   S
    H28    C157      1.09785      .   S
    H99    C243      1.08711      .   S
    H106   C246      1.08848      .   S
    H31    C160      1.08840      .   S
    C197   C196      1.38625      .   S
    C197   H61       1.09109      .   S
    C211   C210      1.38625      .   S
    C211   H75       1.09112      .   S
    C196   H60       1.08826      .   S
    C210   H74       1.08850      .   S
    H107   C247      1.09016      .   S
    H33    C161      1.09124      .   S
    C193   C192      1.38682      .   S
    C193   H57       1.08723      .   S
    C103   C102      1.38686      .   S
    C103   H71       1.08712      .   S
    C192   H56       1.08998      .   S
    C102   H70       1.09008      .   S
    C242   C243      1.38686      .   S
    C242   C241      1.40688      .   S
    C156   C157      1.38684      .   S
    C156   C155      1.40693      .   S
    H29    C158      1.09068      .   S
    H104   C244      1.09194      .   S
    C243   N276      1.34691      .   S
    C157   N266      1.34662      .   S
    C246   C247      1.38618      .   S
    C246   N277      1.35161      .   S
    C160   C161      1.38625      .   S
    C160   N267      1.35028      .   S
    C247   C248      1.41043      .   S
    C161   C162      1.40943      .   S
    O283   C129      1.28105      .   S
    O311   C256      1.28095      .   S
    C158   C155      1.45512      .   S
    C158   C159      1.35292  1_655   S
    C244   C241      1.45503      .   S
    C244   C245      1.35130      .   S
    C241   C240      1.40944      .   S
    C155   C154      1.40940      .   S
    N266   Zn0       2.18261      .   S
    N266   C153      1.35184      .   S
    N276   Zn5       2.18242  1_655   S
    N276   C239      1.35287      .   S
    Zn5    N277      2.18949      .   S
    Zn5    O310      2.07369  1_545   S
    Zn5    O304      2.05212      .   S
    Zn0    N267      2.18922      .   S
    Zn0    O282      2.07297      .   S
    Zn0    O284      2.05217      .   S
    N267   C164      1.35114      .   S
    N277   C250      1.34973      .   S
    C248   C245      1.45832      .   S
    C248   C249      1.40829      .   S
    C162   C159      1.45846      .   S
    C162   C163      1.40829      .   S
    O305   C233      1.26143  1_655   S
    O285   C147      1.26134      .   S
    C245   H105      1.09426      .   S
    C159   H30       1.09307  1_455   S
    C129   O282      1.27139      .   S
    C129   C128      1.48454      .   S
    C256   O310      1.27159  1_655   S
    C256   C255      1.48458      .   S
    C153   C154      1.38642      .   S
    C153   H25       1.09053      .   S
    C239   C240      1.38640      .   S
    C239   H96       1.08953      .   S
    C154   H26       1.08975      .   S
    C240   H97       1.08963      .   S
    C250   C249      1.38872      .   S
    C250   H109      1.08905      .   S
    C164   C163      1.38870      .   S
    C164   H35       1.08916      .   S
    C249   H108      1.09073      .   S
    C163   H34       1.09070      .   S
    H10    C128      1.09068      .   S
    H113   C255      1.09068      .   S
    C233   O304      1.29148      .   S
    C233   C234      1.48092  1_455   S
    C147   O284      1.29153      .   S
    C147   C148      1.48960      .   S
    C128   C127      1.35280      .   S
    C255   C254      1.35299      .   S
    H92    C234      1.09103      .   S
    H21    C148      1.09290      .   S
    C234   C235      1.36198  1_655   S
    C148   C149      1.35201      .   S
    C127   H9        1.09519      .   S
    C127   C126      1.44093      .   S
    C254   H112      1.02536  1_655   S
    C254   C253      1.44105      .   S
    H8     C126      1.09397      .   S
    H111   C253      1.09399      .   S
    C235   H93       1.09391      .   S
    C235   C236      1.44069      .   S
    C149   H22       1.09394      .   S
    C149   C150      1.44073      .   S
    C126   C125      1.35188      .   S
    C253   C252      1.34275  1_655   S
    H94    C236      1.09515  1_655   S
    H23    C150      1.09514      .   S
    C236   C237      1.35292      .   S
    C150   C151      1.35295      .   S
    C125   H7        1.09261      .   S
    C125   C124      1.48955      .   S
    C252   H110      1.03025      .   S
    C252   C251      1.48551  1_455   S
    H122   C262      1.09082      .   S
    H19    C145      1.09080      .   S
    H123   C263      1.08989      .   S
    H20    C146      1.08913      .   S
    O280   C124      1.29131      .   S
    O280   Zn32      2.05609      .   S
    O308   C251      1.29133      .   S
    O308   Zn6       2.05600      .   S
    H12    C131      1.08986      .   S
    H115   C258      1.08977      .   S
    C237   H95       1.09065      .   S
    C237   C238      1.48513      .   S
    C151   H24       1.09064      .   S
    C151   C152      1.48518      .   S
    H11    C130      1.08958      .   S
    H114   C257      1.08955      .   S
    C124   O281      1.26155      .   S
    C251   O309      1.26158  1_655   S
    H119   C134      1.09317      .   S
    H16    C141      1.09314  1_455   S
    C262   C263      1.38868      .   S
    C262   C261      1.40805      .   S
    C145   C146      1.38871      .   S
    C145   C144      1.40835      .   S
    C263   N279      1.34894      .   S
    C146   N265      1.34968      .   S
    C131   C130      1.38648      .   S
    C131   C137      1.40934      .   S
    C258   C257      1.38647      .   S
    C258   C259      1.40933      .   S
    C130   N264      1.35280      .   S
    C257   N278      1.35277      .   S
    O306   C238      1.27218  1_655   S
    O306   Zn6       2.07231      .   S
    O286   C152      1.27218      .   S
    O286   Zn32      2.07268  1_565   S
    C238   O307      1.28085      .   S
    C152   O287      1.28096      .   S
    C141   C144      1.45840      .   S
    C141   C140      1.35192  1_655   S
    C134   C261      1.45834      .   S
    C134   C133      1.35215      .   S
    C261   C136      1.40976      .   S
    C144   C143      1.40953      .   S
    N279   Zn6       2.18772      .   S
    N279   C135      1.35227      .   S
    N265   Zn32      2.18753      .   S
    N265   C142      1.35156      .   S
    Zn6    N278      2.18187  1_655   S
    Zn32   N264      2.18237      .   S
    N264   C139      1.33719      .   S
    N278   C132      1.34679      .   S
    C137   C140      1.45523      .   S
    C137   C138      1.40680      .   S
    C259   C133      1.45522      .   S
    C259   C260      1.40617      .   S
    C140   H15       1.09216      .   S
    C133   H118      1.09224      .   S
    C143   C142      1.38632      .   S
    C136   C135      1.38635      .   S
    C139   C138      1.38762      .   S
    C132   C260      1.38690      .   S
