# CIF file generated by openbabel 2.4.90, see http://openbabel.sf.net
data_I
_chemical_name_common ''
_cell_length_a 22.684
_cell_length_b 12.99
_cell_length_c 12.986
_cell_angle_alpha 117.495
_cell_angle_beta 94.955
_cell_angle_gamma 85.039
_space_group_name_H-M_alt 'P 1'
_space_group_name_Hall 'P 1'
loop_
    _symmetry_equiv_pos_as_xyz
    x,y,z
loop_
    _atom_site_label
    _atom_site_type_symbol
    _atom_site_fract_x
    _atom_site_fract_y
    _atom_site_fract_z
    _atom_site_occupancy
    N0      N    0.23140   0.34470   0.14952   1.000
    N1      N    0.26860   0.65530   0.85048   1.000
    N2      N    0.76860   0.65530   0.85047   1.000
    N3      N    0.48139   0.85046   0.65531   1.000
    N4      N    0.73140   0.34470   0.14952   1.000
    N5      N    0.51861   0.14953   0.34468   1.000
    N6      N    0.01861   0.14953   0.34465   1.000
    N7      N    0.98139   0.85046   0.65531   1.000
    Zr8     Zr   0.00000   0.50000   1.00000   1.000
    O9      O    0.08505   0.46512   0.05297   1.000
    O10     O    0.01198   0.35982   0.76880   1.000
    O11     O    0.99769   0.63894   0.89238   1.000
    O12     O    0.91496   0.53488   0.94702   1.000
    O13     O    0.98802   0.64018   0.23118   1.000
    O14     O    0.00231   0.36106   0.10761   1.000
    Zr15    Zr   0.25000   1.00000   0.50000   1.000
    O16     O    0.16496   0.05298   0.46509   1.000
    O17     O    0.25230   0.89239   0.63897   1.000
    O18     O    0.24770   0.10761   0.36103   1.000
    O19     O    0.33505   0.94702   0.53489   1.000
    O20     O    0.26198   0.23118   0.64018   1.000
    O21     O    0.23802   0.76882   0.35982   1.000
    Zr22    Zr   0.75000   1.00000   0.50000   1.000
    O23     O    0.83505   0.94702   0.53489   1.000
    O24     O    0.75231   0.89239   0.63897   1.000
    O25     O    0.74770   0.10761   0.36103   1.000
    O26     O    0.76199   0.23118   0.64017   1.000
    O27     O    0.73802   0.76882   0.35982   1.000
    O28     O    0.66496   0.05298   0.46510   1.000
    Zr29    Zr   0.50000   0.50000   1.00000   1.000
    O30     O    0.51199   0.35982   0.76881   1.000
    O31     O    0.58505   0.46512   0.05298   1.000
    O32     O    0.50231   0.36106   0.10762   1.000
    O33     O    0.48802   0.64018   0.23118   1.000
    O34     O    0.49770   0.63894   0.89237   1.000
    O35     O    0.41496   0.53488   0.94702   1.000
loop_
    _geom_bond_atom_site_label_1
    _geom_bond_atom_site_label_2
    _geom_bond_distance
    _geom_bond_site_symmetry_2
    _ccdc_geom_bond_type
    Zr8    O9        2.07549  1_556   S
    N0     O9        3.90303      .   S
    Zr8    O10       2.72232      .   S
    N6     O10       4.89923      .   S
    Zr8    O11       2.74104  1_455   S
    N7     O11       4.96003      .   S
    Zr8    O12       2.07550  1_455   S
    N2     O12       3.90302      .   S
    Zr8    O13       2.72218  1_456   S
    N7     O13       4.89901      .   S
    Zr8    O14       2.74096  1_556   S
    N6     O14       4.95975      .   S
    Zr15   O16       2.07558  1_565   S
    N6     O16       3.90312      .   S
    Zr15   O17       2.74111      .   S
    N1     O17       4.96034      .   S
    Zr15   O18       2.74109  1_565   S
    N0     O18       4.96039      .   S
    Zr15   O19       2.07552      .   S
    N3     O19       3.90307      .   S
    Zr15   O20       2.72288  1_565   S
    N1     O20       4.90026      .   S
    Zr15   O21       2.72287      .   S
    N0     O21       4.90024      .   S
    Zr22   O23       2.07551      .   S
    N7     O23       3.90304      .   S
    Zr22   O24       2.74110      .   S
    N2     O24       4.96032      .   S
    Zr22   O25       2.74108  1_565   S
    N4     O25       4.96038      .   S
    Zr22   O26       2.72286  1_565   S
    N2     O26       4.90026      .   S
    Zr22   O27       2.72287      .   S
    N4     O27       4.90024      .   S
    Zr22   O28       2.07556  1_565   S
    N5     O28       3.90301      .   S
    Zr29   O30       2.72223      .   S
    N5     O30       4.89894      .   S
    Zr29   O31       2.07555  1_556   S
    N4     O31       3.90302      .   S
    Zr29   O32       2.74105  1_556   S
    N5     O32       4.96004      .   S
    Zr29   O33       2.72215  1_556   S
    N3     O33       4.89906      .   S
    Zr29   O34       2.74104      .   S
    N3     O34       4.96001      .   S
    Zr29   O35       2.07552      .   S
    N1     O35       3.90302      .   S
