# CIF file generated by openbabel 2.4.90, see http://openbabel.sf.net
data_I
_chemical_name_common ''
_cell_length_a 20.297
_cell_length_b 22.807
_cell_length_c 18.089
_cell_angle_alpha 99.858
_cell_angle_beta 89.934
_cell_angle_gamma 116.458
_space_group_name_H-M_alt 'P 1'
_space_group_name_Hall 'P 1'
loop_
    _symmetry_equiv_pos_as_xyz
    x,y,z
loop_
    _atom_site_label
    _atom_site_type_symbol
    _atom_site_fract_x
    _atom_site_fract_y
    _atom_site_fract_z
    _atom_site_occupancy
    Mc0     Mc   0.10014   0.67242   0.74726   1.000
    Mc1     Mc   0.10014   0.17241   0.74726   1.000
    Mc2     Mc   0.57228   0.17251   0.24722   1.000
    Mc3     Mc   0.07228   0.17251   0.24721   1.000
    Mc4     Mc   0.57229   0.67251   0.24722   1.000
    Mc5     Mc   0.39988   0.32761   0.25272   1.000
    Mc6     Mc   0.07229   0.67251   0.24721   1.000
    Mc7     Mc   0.89988   0.82761   0.25271   1.000
    Mc8     Mc   0.42773   0.82752   0.75276   1.000
    Mc9     Mc   0.60013   0.17241   0.74726   1.000
    Mc10    Mc   0.42773   0.32751   0.75276   1.000
    Mc11    Mc   0.39989   0.82761   0.25271   1.000
    Mc12    Mc   0.92594   0.82752   0.75275   1.000
    Mc13    Mc   0.92593   0.32751   0.75276   1.000
    Mc14    Mc   0.60014   0.67242   0.74726   1.000
    Mc15    Mc   0.89988   0.32761   0.25271   1.000
