# CIF file generated by openbabel 2.4.90, see http://openbabel.sf.net
data_I
_chemical_name_common ''
_cell_length_a 15.44
_cell_length_b 17.79
_cell_length_c 18.318
_cell_angle_alpha 112.232
_cell_angle_beta 90.004
_cell_angle_gamma 89.996
_space_group_name_H-M_alt 'P 1'
_space_group_name_Hall 'P 1'
loop_
    _symmetry_equiv_pos_as_xyz
    x,y,z
loop_
    _atom_site_label
    _atom_site_type_symbol
    _atom_site_fract_x
    _atom_site_fract_y
    _atom_site_fract_z
    _atom_site_occupancy
    H0      H    0.50132   0.39691   0.69736   1.000
    H1      H    0.50151   0.60614   0.97268   1.000
    H2      H    0.99427   0.10688   0.13700   1.000
    H3      H    0.00000   0.10308   0.80266   1.000
    H4      H    0.00000   0.89387   0.52734   1.000
    H5      H    0.49429   0.39310   0.36298   1.000
    H6      H    0.49868   0.60309   0.30260   1.000
    H7      H    0.49850   0.39386   0.02733   1.000
    H8      H    0.00573   0.89312   0.86300   1.000
    H9      H    0.99870   0.89692   0.19734   1.000
    H10     H    0.99849   0.10613   0.47267   1.000
    H11     H    0.50574   0.60689   0.63701   1.000
    O12     O    0.50062   0.45549   0.71116   1.000
    O13     O    0.50001   0.54726   0.95647   1.000
    O14     O    0.99693   0.04819   0.12198   1.000
    O15     O    0.00000   0.04450   0.78885   1.000
    O16     O    0.00000   0.95275   0.54353   1.000
    O17     O    0.49693   0.45180   0.37801   1.000
    O18     O    0.49938   0.54451   0.28884   1.000
    O19     O    0.50000   0.45274   0.04350   1.000
    O20     O    0.00308   0.95182   0.87802   1.000
    O21     O    0.99938   0.95550   0.21115   1.000
    O22     O    0.99999   0.04725   0.45647   1.000
    O23     O    0.50309   0.54820   0.62190   1.000
loop_
    _geom_bond_atom_site_label_1
    _geom_bond_atom_site_label_2
    _geom_bond_distance
    _geom_bond_site_symmetry_2
    _ccdc_geom_bond_type
    H7     O19       0.97509      .   S
    O14    H2        0.97484      .   S
    H9     O21       0.97502      .   S
    O18    H6        0.97514      .   S
    H5     O17       0.97482      .   S
    O22    H10       0.97503      .   S
    H4     O16       0.97477      .   S
    O23    H11       0.97465      .   S
    H0     O12       0.97501      .   S
    O15    H3        0.97496      .   S
    H8     O20       0.97483      .   S
    O13    H1        0.97501      .   S
