# CIF file generated by openbabel 2.4.90, see http://openbabel.sf.net
data_I
_chemical_name_common ''
_cell_length_a 13.996
_cell_length_b 14.622
_cell_length_c 18.585
_cell_angle_alpha 69.124
_cell_angle_beta 67.88
_cell_angle_gamma 61.406
_space_group_name_H-M_alt 'P 1'
_space_group_name_Hall 'P 1'
loop_
    _symmetry_equiv_pos_as_xyz
    x,y,z
loop_
    _atom_site_label
    _atom_site_type_symbol
    _atom_site_fract_x
    _atom_site_fract_y
    _atom_site_fract_z
    _atom_site_occupancy
    N0      N    0.23112   0.64476   0.87001   1.000
    N1      N    0.72427   0.84028   0.67655   1.000
    N2      N    0.60412   0.07705   0.98281   1.000
    N3      N    0.24649   0.14942   0.35740   1.000
    N4      N    0.73964   0.34496   0.16249   1.000
    N5      N    0.65336   0.40737   0.55732   1.000
    N6      N    0.36663   0.91267   0.04884   1.000
    N7      N    0.31740   0.58234   0.47665   1.000
    Zr8     Zr   0.85993   0.74179   0.82982   1.000
    O9      O    0.81023   0.76173   0.79310   1.000
    O10     O    0.83219   0.77692   0.77791   1.000
    O11     O    0.78337   0.84015   0.87670   1.000
    O12     O    0.97142   0.71144   0.84553   1.000
    Zr13    Zr   0.60699   0.54877   0.93217   1.000
    O14     O    0.65000   0.48029   0.99727   1.000
    O15     O    0.64682   0.62669   0.85420   1.000
    O16     O    0.49956   0.56729   0.91458   1.000
    O17     O    0.53545   0.65616   0.96763   1.000
    Zr18    Zr   0.36376   0.44094   0.10180   1.000
    O19     O    0.32394   0.36302   0.17977   1.000
    O20     O    0.43530   0.33355   0.06576   1.000
    O21     O    0.32075   0.50942   0.03633   1.000
    O22     O    0.47119   0.42243   0.11902   1.000
    Zr23    Zr   0.41958   0.74410   0.71990   1.000
    O24     O    0.51260   0.77411   0.70338   1.000
    O25     O    0.49335   0.78576   0.71336   1.000
    O26     O    0.37557   0.70879   0.77105   1.000
    O27     O    0.35356   0.72391   0.75589   1.000
    O28     O    0.48847   0.64530   0.67070   1.000
    Zr29    Zr   0.89430   0.05356   0.41561   1.000
    O30     O    0.85423   0.13139   0.33825   1.000
    O31     O    0.85130   0.98363   0.48831   1.000
    O32     O    0.82291   0.15845   0.45732   1.000
    O33     O    0.00499   0.07188   0.39903   1.000
    Zr34    Zr   0.11082   0.24793   0.20410   1.000
    O35     O    0.99934   0.27828   0.18804   1.000
    O36     O    0.18738   0.14957   0.15666   1.000
    O37     O    0.16053   0.22798   0.24083   1.000
    O38     O    0.13857   0.21280   0.25601   1.000
    Zr39    Zr   0.07646   0.93614   0.61836   1.000
    O40     O    0.14786   0.83125   0.57666   1.000
    O41     O    0.96577   0.91782   0.63493   1.000
    O42     O    0.11653   0.85832   0.69535   1.000
    O43     O    0.11946   0.00606   0.54565   1.000
    Zr44    Zr   0.55117   0.24562   0.31401   1.000
    O45     O    0.61719   0.26581   0.27768   1.000
    O46     O    0.59518   0.28093   0.26250   1.000
    O47     O    0.48228   0.34442   0.36323   1.000
    O48     O    0.45815   0.21561   0.33054   1.000
    O49     O    0.47741   0.20395   0.32057   1.000
loop_
    _geom_bond_atom_site_label_1
    _geom_bond_atom_site_label_2
    _geom_bond_distance
    _geom_bond_site_symmetry_2
    _ccdc_geom_bond_type
    Zr8    O9        1.02778      .   S
    N1     O9        2.51492      .   S
    Zr8    O10       1.04077      .   S
    N1     O10       2.49959      .   S
    Zr8    O11       1.64020      .   S
    N2     O11       3.87384  1_545   S
    Zr8    O12       1.51807      .   S
    N0     O12       3.45064  1_455   S
    Zr13   O14       1.39172      .   S
    N4     O14       3.33361  1_554   S
    Zr13   O15       1.59115      .   S
    N1     O15       3.87633      .   S
    Zr13   O16       1.53563      .   S
    N0     O16       3.69951      .   S
    Zr13   O17       1.62429      .   S
    N6     O17       3.84628  1_554   S
    Zr18   O19       1.59110      .   S
    N3     O19       3.87621      .   S
    Zr18   O20       1.62987      .   S
    N2     O20       3.86280  1_556   S
    Zr18   O21       1.39701      .   S
    N0     O21       3.35104  1_556   S
    Zr18   O22       1.53214      .   S
    N4     O22       3.68945      .   S
    Zr23   O24       1.46000      .   S
    N1     O24       3.35401      .   S
    Zr23   O25       1.38085      .   S
    N1     O25       3.45859      .   S
    Zr23   O26       1.03120      .   S
    N0     O26       2.47601      .   S
    Zr23   O27       1.02137      .   S
    N0     O27       2.48722      .   S
    Zr23   O28       1.67244      .   S
    N5     O28       3.96830      .   S
    Zr29   O30       1.58329      .   S
    N4     O30       3.85693      .   S
    Zr29   O31       1.49173  1_545   S
    N1     O31       3.66746      .   S
    Zr29   O32       1.65785      .   S
    N5     O32       3.94523      .   S
    Zr29   O33       1.59555  1_655   S
    N3     O33       3.79242      .   S
    Zr34   O35       1.52118  1_455   S
    N4     O35       3.45922      .   S
    Zr34   O36       1.64649      .   S
    N6     O36       3.89253  1_565   S
    Zr34   O37       1.02800      .   S
    N3     O37       2.51523      .   S
    Zr34   O38       1.04091      .   S
    N3     O38       2.50000      .   S
    Zr39   O40       1.65782      .   S
    N7     O40       3.94520      .   S
    Zr39   O41       1.59556  1_455   S
    N1     O41       3.79238      .   S
    Zr39   O42       1.57791      .   S
    N0     O42       3.84222      .   S
    Zr39   O43       1.49181  1_565   S
    N3     O43       3.66765      .   S
    Zr44   O45       1.02277      .   S
    N4     O45       2.49580      .   S
    Zr44   O46       1.03463      .   S
    N4     O46       2.48204      .   S
    Zr44   O47       1.67265      .   S
    N7     O47       3.96861      .   S
    Zr44   O48       1.45990      .   S
    N3     O48       3.35380      .   S
    Zr44   O49       1.38071      .   S
    N3     O49       3.45842      .   S
