# CIF file generated by openbabel 2.4.90, see http://openbabel.sf.net
data_I
_chemical_name_common ''
_cell_length_a 19.597
_cell_length_b 14.255
_cell_length_c 14.261
_cell_angle_alpha 102.692
_cell_angle_beta 103.349
_cell_angle_gamma 103.22
_space_group_name_H-M_alt 'P 1'
_space_group_name_Hall 'P 1'
loop_
    _symmetry_equiv_pos_as_xyz
    x,y,z
loop_
    _atom_site_label
    _atom_site_type_symbol
    _atom_site_fract_x
    _atom_site_fract_y
    _atom_site_fract_z
    _atom_site_occupancy
    H0      H    0.03700   0.91432   0.49039   1.000
    H1      H    0.53700   0.91453   0.49040   1.000
    H2      H    0.16527   0.98352   0.59617   1.000
    H3      H    0.66527   0.98377   0.59618   1.000
    H4      H    0.22853   0.96292   0.32175   1.000
    H5      H    0.72854   0.96259   0.32173   1.000
    H6      H    0.09671   0.89824   0.22833   1.000
    H7      H    0.59673   0.89800   0.22831   1.000
    H8      H    0.03319   0.54577   0.27104   1.000
    H9      H    0.53320   0.54576   0.27104   1.000
    H10     H    0.01249   0.35239   0.25743   1.000
    H11     H    0.51250   0.35238   0.25744   1.000
    H12     H    0.23269   0.00051   0.07673   1.000
    H13     H    0.73269   0.00052   0.07674   1.000
    H14     H    0.26031   0.18676   0.06490   1.000
    H15     H    0.76031   0.18676   0.06490   1.000
    H16     H    0.21308   0.50961   0.08653   1.000
    H17     H    0.71309   0.50961   0.08648   1.000
    H18     H    0.08485   0.40385   0.01772   1.000
    H19     H    0.58486   0.40385   0.01765   1.000
    H20     H    0.02128   0.67811   0.03525   1.000
    H21     H    0.52128   0.67812   0.03534   1.000
    H22     H    0.15304   0.77150   0.10016   1.000
    H23     H    0.65304   0.77151   0.10021   1.000
    H24     H    0.21698   0.72924   0.45390   1.000
    H25     H    0.71698   0.72924   0.45390   1.000
    H26     H    0.23765   0.74291   0.64726   1.000
    H27     H    0.73765   0.74290   0.64725   1.000
    H28     H    0.01729   0.92315   0.99987   1.000
    H29     H    0.51729   0.92314   0.99988   1.000
    H30     H    0.48989   0.93495   0.81360   1.000
    H31     H    0.98990   0.93494   0.81363   1.000
    H32     H    0.46294   0.08685   0.50968   1.000
    H33     H    0.96294   0.08707   0.50969   1.000
    H34     H    0.33465   0.01783   0.40388   1.000
    H35     H    0.83464   0.01810   0.40389   1.000
    H36     H    0.27150   0.03535   0.67814   1.000
    H37     H    0.77151   0.03499   0.67811   1.000
    H38     H    0.40331   0.10042   0.77158   1.000
    H39     H    0.90332   0.10015   0.77155   1.000
    H40     H    0.46679   0.45427   0.72899   1.000
    H41     H    0.96680   0.45427   0.72899   1.000
    H42     H    0.48752   0.64765   0.74255   1.000
    H43     H    0.98753   0.64764   0.74255   1.000
    H44     H    0.26730   0.99951   0.92326   1.000
    H45     H    0.76730   0.99952   0.92320   1.000
    H46     H    0.23972   0.81326   0.93509   1.000
    H47     H    0.73971   0.81327   0.93510   1.000
    H48     H    0.28686   0.49046   0.91473   1.000
    H49     H    0.78686   0.49047   0.91483   1.000
    H50     H    0.41507   0.59620   0.98375   1.000
    H51     H    0.91507   0.59620   0.98387   1.000
    H52     H    0.47874   0.32176   0.96286   1.000
    H53     H    0.97875   0.32175   0.96271   1.000
    H54     H    0.34698   0.22840   0.89800   1.000
    H55     H    0.84699   0.22839   0.89827   1.000
    H56     H    0.28301   0.27079   0.54613   1.000
    H57     H    0.78302   0.27078   0.54613   1.000
    H58     H    0.26236   0.25707   0.35277   1.000
    H59     H    0.76237   0.25706   0.35277   1.000
    H60     H    0.48271   0.07684   0.00015   1.000
    H61     H    0.98270   0.07685   0.00016   1.000
    H62     H    0.01012   0.06504   0.18640   1.000
    H63     H    0.51013   0.06504   0.18639   1.000
    C64     C    0.08139   0.92691   0.45640   1.000
    C65     C    0.58139   0.92702   0.45640   1.000
    C66     C    0.15422   0.96506   0.51503   1.000
    C67     C    0.65422   0.96518   0.51503   1.000
    C68     C    0.21074   0.97979   0.46966   1.000
    C69     C    0.71074   0.97975   0.46965   1.000
    C70     C    0.18895   0.95475   0.36394   1.000
    C71     C    0.68896   0.95457   0.36392   1.000
    C72     C    0.11496   0.91758   0.31019   1.000
    C73     C    0.61497   0.91743   0.31010   1.000
    C74     C    0.40280   0.61071   0.21290   1.000
    C75     C    0.90280   0.61071   0.21289   1.000
    C76     C    0.41496   0.51268   0.21527   1.000
    C77     C    0.91496   0.51268   0.21528   1.000
    C78     C    0.47987   0.48930   0.24555   1.000
    C79     C    0.97987   0.48931   0.24556   1.000
    C80     C    0.46859   0.38635   0.23877   1.000
    C81     C    0.96859   0.38635   0.23877   1.000
    C82     C    0.39463   0.33076   0.20290   1.000
    C83     C    0.89463   0.33076   0.20293   1.000
    C84     C    0.36187   0.22462   0.18701   1.000
    C85     C    0.86187   0.22463   0.18701   1.000
    C86     C    0.33609   0.04706   0.19486   1.000
    C87     C    0.83610   0.04706   0.19487   1.000
    C88     C    0.28075   0.06182   0.12453   1.000
    C89     C    0.78076   0.06182   0.12454   1.000
    C90     C    0.29541   0.16163   0.11894   1.000
    C91     C    0.79541   0.16163   0.11895   1.000
    S92     S    0.84462   0.74242   0.84115   1.000
    S93     S    0.16037   0.59251   0.82147   1.000
    S94     S    0.66037   0.59252   0.82140   1.000
    S95     S    0.09465   0.84122   0.74206   1.000
    C96     C    0.34492   0.95092   0.21030   1.000
    C97     C    0.84492   0.95093   0.21038   1.000
    C98     C    0.16863   0.54357   0.07345   1.000
    C99     C    0.66864   0.54357   0.07342   1.000
    C100    C    0.09583   0.48496   0.03538   1.000
    C101    C    0.59584   0.48497   0.03536   1.000
    C102    C    0.03923   0.53030   0.01997   1.000
    C103    C    0.53923   0.53030   0.01997   1.000
    C104    C    0.06093   0.63595   0.04416   1.000
    C105    C    0.56093   0.63596   0.04421   1.000
    C106    C    0.13489   0.68969   0.08138   1.000
    C107    C    0.63489   0.68969   0.08141   1.000
    C108    C    0.34731   0.78709   0.38929   1.000
    C109    C    0.84731   0.78711   0.38929   1.000
    C110    C    0.33519   0.78489   0.48730   1.000
    C111    C    0.83519   0.78491   0.48730   1.000
    C112    C    0.27029   0.75472   0.51052   1.000
    C113    C    0.77029   0.75471   0.51051   1.000
    C114    C    0.28157   0.76151   0.61346   1.000
    C115    C    0.78158   0.76152   0.61346   1.000
    C116    C    0.35552   0.79728   0.66926   1.000
    C117    C    0.85553   0.79729   0.66926   1.000
    C118    C    0.38823   0.81316   0.77546   1.000
    C119    C    0.88824   0.81317   0.77546   1.000
    C120    C    0.41382   0.80535   0.95305   1.000
    C121    C    0.91383   0.80536   0.95305   1.000
    C122    C    0.46926   0.87544   0.93844   1.000
    C123    C    0.96927   0.87544   0.93844   1.000
    C124    C    0.45471   0.88103   0.83863   1.000
    C125    C    0.95471   0.88104   0.83863   1.000
    C126    C    0.40495   0.78994   0.04913   1.000
    C127    C    0.90496   0.78995   0.04913   1.000
    C128    C    0.41857   0.07369   0.54361   1.000
    C129    C    0.91857   0.07381   0.54361   1.000
    C130    C    0.34573   0.03556   0.48500   1.000
    C131    C    0.84573   0.03567   0.48500   1.000
    C132    C    0.28924   0.02003   0.53032   1.000
    C133    C    0.78925   0.02000   0.53032   1.000
    C134    C    0.31106   0.04432   0.63600   1.000
    C135    C    0.81107   0.04411   0.63598   1.000
    C136    C    0.38505   0.08161   0.68975   1.000
    C137    C    0.88506   0.08144   0.68974   1.000
    C138    C    0.09718   0.38930   0.78715   1.000
    C139    C    0.59718   0.38930   0.78714   1.000
    C140    C    0.08503   0.48733   0.78480   1.000
    C141    C    0.58503   0.48734   0.78480   1.000
    C142    C    0.02012   0.51072   0.75448   1.000
    C143    C    0.52012   0.51073   0.75448   1.000
    C144    C    0.03142   0.61367   0.76124   1.000
    C145    C    0.53142   0.61368   0.76124   1.000
    C146    C    0.10538   0.66925   0.79709   1.000
    C147    C    0.60538   0.66926   0.79700   1.000
    C148    C    0.13814   0.77538   0.81299   1.000
    C149    C    0.63815   0.77539   0.81299   1.000
    C150    C    0.16390   0.95294   0.80512   1.000
    C151    C    0.66390   0.95295   0.80512   1.000
    C152    C    0.21925   0.93819   0.87545   1.000
    C153    C    0.71925   0.93820   0.87546   1.000
    C154    C    0.20460   0.83838   0.88105   1.000
    C155    C    0.70460   0.83839   0.88106   1.000
    C156    C    0.15507   0.04908   0.78962   1.000
    C157    C    0.65506   0.04909   0.78963   1.000
    C158    C    0.33132   0.45645   0.92721   1.000
    C159    C    0.83132   0.45646   0.92725   1.000
    C160    C    0.40412   0.51505   0.96528   1.000
    C161    C    0.90413   0.51506   0.96534   1.000
    C162    C    0.46075   0.46968   0.97985   1.000
    C163    C    0.96076   0.46967   0.97982   1.000
    C164    C    0.43908   0.36397   0.95481   1.000
    C165    C    0.93909   0.36396   0.95474   1.000
    C166    C    0.36512   0.31024   0.91774   1.000
    C167    C    0.86512   0.31024   0.91766   1.000
    C168    C    0.15267   0.21294   0.61072   1.000
    C169    C    0.65267   0.21295   0.61072   1.000
    C170    C    0.16479   0.21517   0.51272   1.000
    C171    C    0.66480   0.21519   0.51272   1.000
    C172    C    0.22970   0.24531   0.48951   1.000
    C173    C    0.72971   0.24532   0.48951   1.000
    C174    C    0.21843   0.23849   0.38657   1.000
    C175    C    0.71844   0.23849   0.38656   1.000
    C176    C    0.14449   0.20273   0.33076   1.000
    C177    C    0.64449   0.20274   0.33070   1.000
    C178    C    0.11178   0.18683   0.22455   1.000
    C179    C    0.61178   0.18684   0.22455   1.000
    C180    C    0.08617   0.19462   0.04696   1.000
    C181    C    0.58618   0.19463   0.04696   1.000
    C182    C    0.03074   0.12454   0.06158   1.000
    C183    C    0.53075   0.12455   0.06157   1.000
    C184    C    0.04530   0.11896   0.16100   1.000
    C185    C    0.54531   0.11896   0.16139   1.000
    C186    C    0.09502   0.21005   0.95088   1.000
    C187    C    0.59504   0.21006   0.95088   1.000
    S188    S    0.33963   0.40749   0.17859   1.000
    S189    S    0.83963   0.40749   0.17860   1.000
    S190    S    0.40535   0.15877   0.25793   1.000
    S191    S    0.90536   0.15877   0.25790   1.000
    S192    S    0.41051   0.82155   0.59268   1.000
    S193    S    0.91051   0.82156   0.59260   1.000
    S194    S    0.34462   0.74241   0.84115   1.000
    S195    S    0.59466   0.84122   0.74205   1.000
    S196    S    0.08949   0.17850   0.40732   1.000
    S197    S    0.58949   0.17852   0.40732   1.000
    S198    S    0.15539   0.25755   0.15885   1.000
    S199    S    0.65539   0.25757   0.15885   1.000
    N200    N    0.06133   0.90305   0.35495   1.000
    N201    N    0.56133   0.90304   0.35495   1.000
    N202    N    0.18861   0.64499   0.09662   1.000
    N203    N    0.68861   0.64499   0.09662   1.000
    N204    N    0.43865   0.09689   0.64503   1.000
    N205    N    0.93865   0.09687   0.64503   1.000
    N206    N    0.31137   0.35499   0.90332   1.000
    N207    N    0.81137   0.35500   0.90331   1.000
    O208    O    0.45866   0.68722   0.23868   1.000
    O209    O    0.95866   0.68722   0.23869   1.000
    O210    O    0.41459   0.81501   0.39052   1.000
    O211    O    0.91459   0.81501   0.39052   1.000
    O212    O    0.40626   0.95472   0.26912   1.000
    O213    O    0.90627   0.95473   0.26910   1.000
    O214    O    0.29102   0.87192   0.16257   1.000
    O215    O    0.79102   0.87193   0.16260   1.000
    O216    O    0.29139   0.76129   0.31272   1.000
    O217    O    0.79139   0.76128   0.31272   1.000
    O218    O    0.33549   0.60954   0.18483   1.000
    O219    O    0.83549   0.60954   0.18483   1.000
    O220    O    0.34363   0.73131   0.04522   1.000
    O221    O    0.84364   0.73134   0.04522   1.000
    O222    O    0.45885   0.83769   0.12822   1.000
    O223    O    0.95886   0.83769   0.12822   1.000
    O224    O    0.04132   0.31278   0.76132   1.000
    O225    O    0.54132   0.31278   0.76130   1.000
    O226    O    0.08539   0.18501   0.60949   1.000
    O227    O    0.58539   0.18502   0.60948   1.000
    O228    O    0.09372   0.04527   0.73088   1.000
    O229    O    0.59374   0.04527   0.73083   1.000
    O230    O    0.20896   0.12808   0.83740   1.000
    O231    O    0.70895   0.12809   0.83746   1.000
    O232    O    0.20859   0.23871   0.68728   1.000
    O233    O    0.70859   0.23871   0.68728   1.000
    O234    O    0.16449   0.39046   0.81520   1.000
    O235    O    0.66449   0.39046   0.81519   1.000
    O236    O    0.15635   0.26864   0.95478   1.000
    O237    O    0.65635   0.26869   0.95478   1.000
    O238    O    0.04112   0.16232   0.87179   1.000
    O239    O    0.54114   0.16230   0.87178   1.000
loop_
    _geom_bond_atom_site_label_1
    _geom_bond_atom_site_label_2
    _geom_bond_distance
    _geom_bond_site_symmetry_2
    _ccdc_geom_bond_type
    H60    C183      1.08662      .   S
    H61    C182      1.08651  1_655   S
    H19    C101      1.08623      .   S
    H18    C100      1.08624      .   S
    C102   C100      1.40501      .   S
    C102   C104      1.40688      .   S
    C102   C163      1.48576  1_454   S
    C103   C101      1.40501      .   S
    C103   C105      1.40689      .   S
    C103   C162      1.48592  1_554   S
    H20    C104      1.08737      .   S
    H21    C105      1.08734      .   S
    C101   C99       1.38781      .   S
    C100   C98       1.38780      .   S
    C104   C106      1.38838      .   S
    C105   C107      1.38837      .   S
    O220   C126      1.27861      .   S
    O221   C127      1.27860      .   S
    C180   C182      1.38607      .   S
    C180   S198      1.73372      .   S
    C180   C186      1.47670  1_554   S
    C181   C183      1.38605      .   S
    C181   S199      1.73368      .   S
    C181   C187      1.47672  1_554   S
    C126   O222      1.27854      .   S
    C126   C120      1.47671  1_554   S
    C127   O223      1.27856      .   S
    C127   C121      1.47669  1_554   S
    C183   C185      1.40955      .   S
    C182   C184      1.40399      .   S
    H15    C91       1.08850      .   S
    H14    C90       1.08841      .   S
    C99    H17       1.08873      .   S
    C99    N203      1.35059      .   S
    C98    H16       1.08873      .   S
    C98    N202      1.35059      .   S
    H12    C88       1.08662      .   S
    H13    C89       1.08664      .   S
    C106   N202      1.35040      .   S
    C106   H22       1.08965      .   S
    C107   N203      1.35042      .   S
    C107   H23       1.08966      .   S
    C90    C88       1.40951      .   S
    C90    C84       1.39393      .   S
    C91    C89       1.40951      .   S
    C91    C85       1.39391      .   S
    C88    C86       1.38610      .   S
    C89    C87       1.38610      .   S
    S198   C178      1.73648      .   S
    S199   C179      1.73655      .   S
    C184   H62       1.09199      .   S
    C184   C178      1.39555      .   S
    C185   H63       1.08841      .   S
    C185   C179      1.39397      .   S
    O214   C96       1.27844      .   S
    O215   C97       1.27861      .   S
    S188   C82       1.73546      .   S
    S188   C76       1.72847      .   S
    S189   C83       1.73554      .   S
    S189   C77       1.72846      .   S
    O218   C74       1.28213      .   S
    O219   C75       1.28213      .   S
    C84    C82       1.44586      .   S
    C84    S190      1.73651      .   S
    C85    C83       1.44575      .   S
    C85    S191      1.73631      .   S
    C86    C96       1.47648  1_545   S
    C86    S190      1.73360      .   S
    C87    C97       1.47679  1_545   S
    C87    S191      1.73354      .   S
    C82    C80       1.39440      .   S
    C83    C81       1.39440      .   S
    C96    O212      1.27909      .   S
    C97    O213      1.27864      .   S
    C75    C77       1.47644      .   S
    C75    O209      1.27076      .   S
    C74    C76       1.47644      .   S
    C74    O208      1.27076      .   S
    C76    C78       1.38542      .   S
    C77    C79       1.38541      .   S
    C179   C177      1.44519      .   S
    C178   C176      1.44597      .   S
    H7     C73       1.08868      .   S
    H6     C72       1.08969      .   S
    C81    C79       1.41119      .   S
    C81    H10       1.08933  1_655   S
    C80    C78       1.41119      .   S
    C80    H11       1.08954      .   S
    C78    H9        1.08784      .   S
    C79    H8        1.08768  1_655   S
    C73    N201      1.35107      .   S
    C73    C71       1.38862      .   S
    C72    N200      1.35025      .   S
    C72    C70       1.38839      .   S
    O216   C108      1.27089      .   S
    O217   C109      1.27088      .   S
    H5     C71       1.08723      .   S
    H4     C70       1.08733      .   S
    C177   C175      1.39465      .   S
    C177   S197      1.73616      .   S
    C176   C174      1.39447      .   S
    C176   S196      1.73547      .   S
    H59    C175      1.08945      .   S
    H58    C174      1.08956      .   S
    N200   C64       1.35032      .   S
    N201   C65       1.35024      .   S
    C71    C69       1.40693      .   S
    C70    C68       1.40689      .   S
    C175   C173      1.41119      .   S
    C174   C172      1.41105      .   S
    C109   O211      1.28195      .   S
    C109   C111      1.47652      .   S
    C108   O210      1.28199      .   S
    C108   C110      1.47651      .   S
    H34    C130      1.08616      .   S
    H35    C131      1.08612      .   S
    S196   C170      1.72860      .   S
    S197   C171      1.72861      .   S
    H25    C113      1.08785      .   S
    H24    C112      1.08790      .   S
    C65    H1        1.08883      .   S
    C65    C67       1.38786      .   S
    C64    H0        1.08884      .   S
    C64    C66       1.38786      .   S
    C69    C67       1.40488      .   S
    C69    C133      1.48595  1_565   S
    C68    C66       1.40487      .   S
    C68    C132      1.48591  1_565   S
    C130   C132      1.40481      .   S
    C130   C128      1.38776      .   S
    C131   C133      1.40491      .   S
    C131   C129      1.38775      .   S
    C110   C112      1.38533      .   S
    C110   S192      1.72857      .   S
    C111   C113      1.38530      .   S
    C111   S193      1.72788      .   S
    C172   C170      1.38536      .   S
    C172   H56       1.08784      .   S
    C173   C171      1.38532      .   S
    C173   H57       1.08784      .   S
    H32    C128      1.08870      .   S
    H33    C129      1.08870      .   S
    C113   C115      1.41121      .   S
    C112   C114      1.41110      .   S
    C170   C168      1.47648      .   S
    C171   C169      1.47651      .   S
    C67    H3        1.08614      .   S
    C66    H2        1.08606      .   S
    C132   C134      1.40695      .   S
    C133   C135      1.40683      .   S
    C128   N204      1.35042      .   S
    C129   N205      1.35053      .   S
    S193   C117      1.73655      .   S
    S192   C116      1.73565      .   S
    O227   C169      1.28202      .   S
    O226   C168      1.28202      .   S
    C169   O233      1.27083      .   S
    C168   O232      1.27083      .   S
    C114   H26       1.08952      .   S
    C114   C116      1.39448      .   S
    C115   H27       1.08945      .   S
    C115   C117      1.39446      .   S
    C135   H37       1.08730      .   S
    C135   C137      1.38839      .   S
    C134   H36       1.08728      .   S
    C134   C136      1.38838      .   S
    N205   C137      1.35032      .   S
    N204   C136      1.35029      .   S
    C117   C119      1.44591      .   S
    C116   C118      1.44590      .   S
    C137   H39       1.08959      .   S
    C136   H38       1.08975      .   S
    H41    C142      1.08767  1_655   S
    H40    C143      1.08784      .   S
    O229   C157      1.27869      .   S
    O228   C156      1.27870      .   S
    S195   C151      1.73355      .   S
    S195   C149      1.73649      .   S
    S95    C150      1.73356      .   S
    S95    C148      1.73653      .   S
    H43    C144      1.08933  1_655   S
    H42    C145      1.08953      .   S
    C142   C144      1.41119      .   S
    C142   C140      1.38543      .   S
    C143   C145      1.41119      .   S
    C143   C141      1.38543      .   S
    C144   C146      1.39441      .   S
    C145   C147      1.39441      .   S
    O225   C139      1.27078      .   S
    O224   C138      1.27081      .   S
    C118   C124      1.39400      .   S
    C118   S194      1.73658      .   S
    C119   C125      1.39401      .   S
    C119   S92       1.73658      .   S
    C141   C139      1.47648      .   S
    C141   S94       1.72859      .   S
    C140   C138      1.47648      .   S
    C140   S93       1.72851      .   S
    C139   O235      1.28208      .   S
    C138   O234      1.28209      .   S
    C156   C150      1.47683  1_545   S
    C156   O230      1.27850      .   S
    C157   C151      1.47680  1_545   S
    C157   O231      1.27856      .   S
    C147   C149      1.44557      .   S
    C147   S94       1.73561      .   S
    C146   C148      1.44577      .   S
    C146   S93       1.73555      .   S
    C151   C153      1.38618      .   S
    C150   C152      1.38609      .   S
    C149   C155      1.39396      .   S
    C148   C154      1.39394      .   S
    H30    C124      1.08876      .   S
    H31    C125      1.08844      .   S
    C124   C122      1.40945      .   S
    C125   C123      1.40946      .   S
    S92    C121      1.73370      .   S
    S194   C120      1.73369      .   S
    O239   C187      1.27867      .   S
    O238   C186      1.27863      .   S
    C152   C154      1.40955      .   S
    C152   H44       1.08666      .   S
    C153   C155      1.40951      .   S
    C153   H45       1.08636      .   S
    C154   H46       1.08845      .   S
    C155   H47       1.08845      .   S
    H54    C166      1.08934      .   S
    H55    C167      1.08965      .   S
    N207   C167      1.35040      .   S
    N207   C159      1.35058      .   S
    N206   C166      1.35040      .   S
    N206   C158      1.35056      .   S
    H48    C158      1.08872      .   S
    H49    C159      1.08870      .   S
    C167   C165      1.38838      .   S
    C166   C164      1.38837      .   S
    C158   C160      1.38783      .   S
    C159   C161      1.38782      .   S
    C123   C121      1.38611      .   S
    C123   H28       1.08649  1_655   S
    C122   C120      1.38613      .   S
    C122   H29       1.08668      .   S
    C186   O236      1.27855      .   S
    C187   O237      1.27858      .   S
    C165   H53       1.08735      .   S
    C165   C163      1.40689      .   S
    C164   H52       1.08736      .   S
    C164   C162      1.40688      .   S
    C160   C162      1.40501      .   S
    C160   H50       1.08623      .   S
    C161   C163      1.40502      .   S
    C161   H51       1.08623      .   S
