# CIF file generated by openbabel 2.4.90, see http://openbabel.sf.net
data_I
_chemical_name_common ''
_cell_length_a 13.188
_cell_length_b 13.2
_cell_length_c 23.339
_cell_angle_alpha 90.007
_cell_angle_beta 89.999
_cell_angle_gamma 90.45
_space_group_name_H-M_alt 'P 1'
_space_group_name_Hall 'P 1'
loop_
    _symmetry_equiv_pos_as_xyz
    x,y,z
loop_
    _atom_site_label
    _atom_site_type_symbol
    _atom_site_fract_x
    _atom_site_fract_y
    _atom_site_fract_z
    _atom_site_occupancy
    N0      N    0.26322   0.85596   0.81311   1.000
    N1      N    0.76497   0.35616   0.81293   1.000
    N2      N    0.71593   0.63447   0.81131   1.000
    N3      N    0.28410   0.36551   0.31124   1.000
    N4      N    0.23505   0.64383   0.31293   1.000
    N5      N    0.73680   0.14402   0.31312   1.000
    Zr6     Zr   0.73531   0.64404   0.31251   1.000
    O7      O    0.72745   0.64705   0.46374   1.000
    O8      O    0.73199   0.63520   0.16081   1.000
    Zr9     Zr   0.26471   0.35594   0.81250   1.000
    O10     O    0.27257   0.35293   0.96372   1.000
    O11     O    0.26803   0.36477   0.66078   1.000
    O12     O    0.26641   0.21179   0.81155   1.000
    O13     O    0.26213   0.50011   0.81392   1.000
    O14     O    0.40899   0.35848   0.81217   1.000
    O15     O    0.12061   0.35372   0.81311   1.000
    O16     O    0.73361   0.78819   0.31156   1.000
    O17     O    0.73789   0.49988   0.31393   1.000
    O18     O    0.87941   0.64627   0.31311   1.000
    O19     O    0.59103   0.64151   0.31218   1.000
loop_
    _geom_bond_atom_site_label_1
    _geom_bond_atom_site_label_2
    _geom_bond_distance
    _geom_bond_site_symmetry_2
    _ccdc_geom_bond_type
    Zr6    O7        3.53131      .   S
    N2     O7        8.11496      .   S
    Zr6    O8        3.54274      .   S
    N2     O8        8.15977  1_556   S
    Zr9    O10       3.53099      .   S
    N3     O10       8.11392  1_554   S
    Zr9    O11       3.54310      .   S
    N3     O11       8.16076      .   S
    Zr9    O12       1.90324      .   S
    N0     O12       4.69697  1_565   S
    Zr9    O13       1.90386      .   S
    N0     O13       4.69717      .   S
    Zr9    O14       1.90281      .   S
    N1     O14       4.69502      .   S
    Zr9    O15       1.90047      .   S
    N1     O15       4.69053  1_655   S
    Zr6    O16       1.90323      .   S
    N5     O16       4.69696  1_545   S
    Zr6    O17       1.90386      .   S
    N5     O17       4.69719      .   S
    Zr6    O18       1.90047      .   S
    N4     O18       4.69053  1_455   S
    Zr6    O19       1.90281      .   S
    N4     O19       4.69502      .   S
