# CIF file generated by openbabel 2.4.90, see http://openbabel.sf.net
data_I
_chemical_name_common ''
_cell_length_a 21.592
_cell_length_b 12.585
_cell_length_c 17.174
_cell_angle_alpha 89.958
_cell_angle_beta 95.414
_cell_angle_gamma 90.039
_space_group_name_H-M_alt 'P 1'
_space_group_name_Hall 'P 1'
loop_
    _symmetry_equiv_pos_as_xyz
    x,y,z
loop_
    _atom_site_label
    _atom_site_type_symbol
    _atom_site_fract_x
    _atom_site_fract_y
    _atom_site_fract_z
    _atom_site_occupancy
    N0      N    0.08897   0.72911   0.27440   1.000
    N1      N    0.22239   0.75781   0.56820   1.000
    O2      O    0.21159   0.88648   0.43754   1.000
    N3      N    0.77758   0.24219   0.43175   1.000
    N4      N    0.91100   0.27088   0.72554   1.000
    O5      O    0.82969   0.12141   0.65221   1.000
    N6      N    0.39918   0.98826   0.92308   1.000
    N7      N    0.26799   0.37997   0.89615   1.000
    O8      O    0.29136   0.22709   0.01201   1.000
    N9      N    0.16145   0.22906   0.22369   1.000
    N10     N    0.02760   0.25743   0.93041   1.000
    O11     O    0.08046   0.37890   0.15025   1.000
    N12     N    0.35159   0.48853   0.57503   1.000
    N13     N    0.48289   0.87916   0.60210   1.000
    O14     O    0.45992   0.72699   0.48633   1.000
    N15     N    0.58905   0.72908   0.27618   1.000
    N16     N    0.72281   0.75820   0.56987   1.000
    O17     O    0.71232   0.88632   0.43888   1.000
    N18     N    0.85156   0.48788   0.57712   1.000
    N19     N    0.98319   0.87848   0.60304   1.000
    O20     O    0.91897   0.60735   0.47933   1.000
    N21     N    0.51708   0.11973   0.39786   1.000
    N22     N    0.64838   0.51146   0.42494   1.000
    O23     O    0.58011   0.39235   0.52202   1.000
    N24     N    0.66044   0.22887   0.22595   1.000
    N25     N    0.52805   0.25864   0.93123   1.000
    O26     O    0.57892   0.37800   0.15247   1.000
    N27     N    0.33953   0.77112   0.77402   1.000
    N28     N    0.47192   0.74135   0.06866   1.000
    O29     O    0.42104   0.62199   0.84749   1.000
    N30     N    0.23323   0.62067   0.10177   1.000
    N31     N    0.10202   0.01206   0.07522   1.000
    O32     O    0.20947   0.77326   0.98572   1.000
    N33     N    0.01679   0.12048   0.39691   1.000
    N34     N    0.14840   0.51211   0.42282   1.000
    O35     O    0.04085   0.27309   0.51262   1.000
    N36     N    0.89796   0.98793   0.92475   1.000
    N37     N    0.76674   0.37932   0.89817   1.000
    O38     O    0.83051   0.10722   0.02243   1.000
    N39     N    0.83852   0.77094   0.77628   1.000
    N40     N    0.97237   0.74257   0.06927   1.000
    O41     O    0.96093   0.61324   0.93927   1.000
    N42     N    0.27716   0.24179   0.43009   1.000
    N43     N    0.41092   0.27091   0.72377   1.000
    O44     O    0.28765   0.11367   0.56108   1.000
    N45     N    0.73198   0.62004   0.10381   1.000
    N46     N    0.60079   0.01174   0.07687   1.000
    O47     O    0.70862   0.77291   0.98795   1.000
    Zr48    Zr   0.64531   0.24028   0.04302   1.000
    O49     O    0.60574   0.25249   0.00961   1.000
    O50     O    0.63317   0.16327   0.05025   1.000
    O51     O    0.68491   0.28102   0.00061   1.000
    O52     O    0.64753   0.24250   0.10275   1.000
    Zr53    Zr   0.85375   0.75945   0.95972   1.000
    O54     O    0.89373   0.74767   0.99214   1.000
    O55     O    0.86581   0.83645   0.95213   1.000
    O56     O    0.85145   0.75720   0.89980   1.000
    O57     O    0.81406   0.71858   0.00190   1.000
    Zr58    Zr   0.38630   0.23570   0.89749   1.000
    O59     O    0.43178   0.24914   0.91177   1.000
    O60     O    0.38835   0.15570   0.91024   1.000
    O61     O    0.34693   0.27942   0.90180   1.000
    O62     O    0.39152   0.24205   0.83949   1.000
    Zr63    Zr   0.35466   0.75972   0.95696   1.000
    O64     O    0.39423   0.74750   0.99027   1.000
    O65     O    0.35244   0.75749   0.89722   1.000
    O66     O    0.36681   0.83673   0.94972   1.000
    O67     O    0.31506   0.71898   0.99936   1.000
    Zr68    Zr   0.63511   0.26416   0.39984   1.000
    O69     O    0.68087   0.25108   0.41352   1.000
    O70     O    0.63727   0.34412   0.41239   1.000
    O71     O    0.64054   0.25773   0.34176   1.000
    O72     O    0.59584   0.22035   0.40395   1.000
    Zr73    Zr   0.36486   0.73584   0.60013   1.000
    O74     O    0.31910   0.74891   0.58644   1.000
    O75     O    0.40413   0.77937   0.59602   1.000
    O76     O    0.36270   0.65588   0.58758   1.000
    O77     O    0.35943   0.74226   0.65821   1.000
    Zr78    Zr   0.86463   0.73562   0.60263   1.000
    O79     O    0.81912   0.74896   0.58866   1.000
    O80     O    0.85892   0.74208   0.66062   1.000
    O81     O    0.86250   0.65553   0.58990   1.000
    O82     O    0.90407   0.77894   0.59803   1.000
    Zr83    Zr   0.88524   0.23557   0.89972   1.000
    O84     O    0.88725   0.15550   0.91228   1.000
    O85     O    0.89081   0.24203   0.84156   1.000
    O86     O    0.84583   0.27914   0.90397   1.000
    O87     O    0.93097   0.24863   0.91298   1.000
    Zr88    Zr   0.39469   0.25983   0.54035   1.000
    O89     O    0.38300   0.33689   0.54782   1.000
    O90     O    0.35505   0.24768   0.50745   1.000
    O91     O    0.39727   0.25752   0.60027   1.000
    O92     O    0.43456   0.21875   0.49869   1.000
    Zr93    Zr   0.89584   0.25947   0.54266   1.000
    O94     O    0.85595   0.24761   0.50952   1.000
    O95     O    0.89810   0.25720   0.60240   1.000
    O96     O    0.93529   0.21875   0.49992   1.000
    O97     O    0.88376   0.33646   0.55008   1.000
    Zr98    Zr   0.13534   0.26437   0.39733   1.000
    O99     O    0.13747   0.34446   0.41005   1.000
    O100    O    0.09591   0.22080   0.40193   1.000
    O101    O    0.18086   0.25104   0.41130   1.000
    O102    O    0.14105   0.25792   0.33934   1.000
    Zr103   Zr   0.60528   0.74017   0.45962   1.000
    O104    O    0.64492   0.75231   0.49252   1.000
    O105    O    0.56541   0.78097   0.50128   1.000
    O106    O    0.61697   0.66311   0.45215   1.000
    O107    O    0.60270   0.74247   0.39970   1.000
    Zr108   Zr   0.11473   0.76443   0.10024   1.000
    O109    O    0.06900   0.75136   0.08691   1.000
    O110    O    0.11272   0.84449   0.08768   1.000
    O111    O    0.15414   0.72085   0.09599   1.000
    O112    O    0.10916   0.75796   0.15840   1.000
    Zr113   Zr   0.61367   0.76429   0.10247   1.000
    O114    O    0.65304   0.72057   0.09816   1.000
    O115    O    0.60845   0.75794   0.16046   1.000
    O116    O    0.61162   0.84429   0.08972   1.000
    O117    O    0.56819   0.75085   0.08817   1.000
    Zr118   Zr   0.14622   0.24055   0.04025   1.000
    O119    O    0.18591   0.28141   0.99807   1.000
    O120    O    0.13416   0.16355   0.04784   1.000
    O121    O    0.14852   0.24279   0.10017   1.000
    O122    O    0.10625   0.25233   0.00745   1.000
    Zr123   Zr   0.10413   0.74053   0.45700   1.000
    O124    O    0.14402   0.75239   0.49025   1.000
    O125    O    0.06468   0.78099   0.49985   1.000
    O126    O    0.11621   0.66354   0.44969   1.000
    O127    O    0.10187   0.74280   0.39737   1.000
loop_
    _geom_bond_atom_site_label_1
    _geom_bond_atom_site_label_2
    _geom_bond_distance
    _geom_bond_site_symmetry_2
    _ccdc_geom_bond_type
    N0     O2        4.16926      .   S
    N1     O2        2.75836      .   S
    N3     O5        4.13533      .   S
    N4     O5        2.79082      .   S
    N6     O8        4.18032  1_566   S
    N7     O8        2.77880  1_556   S
    N10    O11       4.13367  1_556   S
    N9     O11       2.79100      .   S
    N12    O14       4.17779      .   S
    N13    O14       2.77214      .   S
    N15    O17       4.17197      .   S
    N16    O17       2.75881      .   S
    N19    O20       4.18651      .   S
    N18    O20       2.76665      .   S
    N21    O23       4.19846      .   S
    N22    O23       2.76713      .   S
    N25    O26       4.13745  1_556   S
    N24    O26       2.79178      .   S
    N28    O29       4.13636  1_554   S
    N27    O29       2.79179      .   S
    N31    O32       4.17936  1_544   S
    N30    O32       2.77957  1_554   S
    N34    O35       4.18092      .   S
    N33    O35       2.77801      .   S
    N37    O38       4.19734  1_556   S
    N36    O38       2.76703  1_566   S
    N39    O41       4.16698      .   S
    N40    O41       2.75592  1_554   S
    N43    O44       4.17179      .   S
    N42    O44       2.75885      .   S
    N46    O47       4.18022  1_544   S
    N45    O47       2.77875  1_554   S
    Zr48   O49       0.99516      .   S
    N25    O49       2.05083  1_556   S
    Zr48   O50       1.01441      .   S
    N46    O50       2.09561      .   S
    Zr48   O51       1.28112      .   S
    N37    O51       2.88568  1_556   S
    Zr48   O52       1.02285      .   S
    N24    O52       2.11464      .   S
    Zr53   O54       0.99325      .   S
    N40    O54       2.05376  1_554   S
    Zr53   O55       1.01479      .   S
    N36    O55       2.09665      .   S
    Zr53   O56       1.02604      .   S
    N39    O56       2.12022      .   S
    Zr53   O57       1.28045  1_556   S
    N45    O57       2.88469      .   S
    Zr58   O59       1.00374      .   S
    N25    O59       2.07724      .   S
    Zr58   O60       1.03031      .   S
    N6     O60       2.12936  1_565   S
    Zr58   O61       1.02146      .   S
    N7     O61       2.11839      .   S
    Zr58   O62       1.01594      .   S
    N43    O62       2.10080      .   S
    Zr63   O64       0.99426      .   S
    N28    O64       2.05102  1_554   S
    Zr63   O65       1.02292      .   S
    N27    O65       2.11478      .   S
    Zr63   O66       1.01443      .   S
    N6     O66       2.09567      .   S
    Zr63   O67       1.28102      .   S
    N30    O67       2.88546  1_554   S
    Zr68   O69       1.00743      .   S
    N3     O69       2.08518      .   S
    Zr68   O70       1.02940      .   S
    N22    O70       2.12829      .   S
    Zr68   O71       1.01849      .   S
    N24    O71       2.10598      .   S
    Zr68   O72       1.01900      .   S
    N21    O72       2.11440      .   S
    Zr73   O74       1.00745      .   S
    N1     O74       2.08524      .   S
    Zr73   O75       1.01714      .   S
    N13    O75       2.10817      .   S
    Zr73   O76       1.02940      .   S
    N12    O76       2.12829      .   S
    Zr73   O77       1.01849      .   S
    N27    O77       2.10597      .   S
    Zr78   O79       1.00353      .   S
    N16    O79       2.07727      .   S
    Zr78   O80       1.01832      .   S
    N39    O80       2.10664      .   S
    Zr78   O81       1.03161      .   S
    N18    O81       2.13204      .   S
    Zr78   O82       1.02011      .   S
    N19    O82       2.11297      .   S
    Zr83   O84       1.03042      .   S
    N36    O84       2.13006  1_565   S
    Zr83   O85       1.02052      .   S
    N4     O85       2.11049      .   S
    Zr83   O86       1.02099      .   S
    N37    O86       2.11809      .   S
    Zr83   O87       1.00576      .   S
    N10    O87       2.08241  1_455   S
    Zr88   O89       1.01354      .   S
    N12    O89       2.09367      .   S
    Zr88   O90       0.99184      .   S
    N42    O90       2.04396      .   S
    Zr88   O91       1.02565      .   S
    N43    O91       2.12047      .   S
    Zr88   O92       1.27979      .   S
    N21    O92       2.88343      .   S
    Zr93   O94       0.99770      .   S
    N3     O94       2.05564      .   S
    Zr93   O95       1.02287      .   S
    N4     O95       2.11408      .   S
    Zr93   O96       1.28298      .   S
    N33    O96       2.88952  1_455   S
    Zr93   O97       1.01481      .   S
    N18    O97       2.09635      .   S
    Zr98   O99       1.03160      .   S
    N34    O99       2.13202      .   S
    Zr98   O100      1.02183      .   S
    N33    O100      2.11874      .   S
    Zr98   O101      1.00353      .   S
    N42    O101      2.07727      .   S
    Zr98   O102      1.01825      .   S
    N9     O102      2.10654      .   S
    Zr103  O104      0.99182      .   S
    N16    O104      2.04391      .   S
    Zr103  O105      1.27835      .   S
    N13    O105      2.87881      .   S
    Zr103  O106      1.01354      .   S
    N22    O106      2.09366      .   S
    Zr103  O107      1.02576      .   S
    N15    O107      2.12074      .   S
    Zr108  O109      1.00591      .   S
    N40    O109      2.08257  1_655   S
    Zr108  O110      1.03041      .   S
    N31    O110      2.13005  1_545   S
    Zr108  O111      1.02099      .   S
    N30    O111      2.11807      .   S
    Zr108  O112      1.02043      .   S
    N0     O112      2.11031      .   S
    Zr113  O114      1.02144      .   S
    N45    O114      2.11833      .   S
    Zr113  O115      1.01588      .   S
    N15    O115      2.10069      .   S
    Zr113  O116      1.03031      .   S
    N46    O116      2.12935  1_545   S
    Zr113  O117      1.00377      .   S
    N28    O117      2.07728      .   S
    Zr118  O119      1.28047  1_554   S
    N7     O119      2.88477      .   S
    Zr118  O120      1.01478      .   S
    N31    O120      2.09664      .   S
    Zr118  O121      1.02604      .   S
    N9     O121      2.12020      .   S
    Zr118  O122      0.99638      .   S
    N10    O122      2.05287  1_556   S
    Zr123  O124      0.99861      .   S
    N1     O124      2.05734      .   S
    Zr123  O125      1.28285      .   S
    N19    O125      2.88735  1_655   S
    Zr123  O126      1.01453      .   S
    N34    O126      2.09558      .   S
    Zr123  O127      1.02101      .   S
    N0     O127      2.11108      .   S
