# CIF file generated by openbabel 2.4.90, see http://openbabel.sf.net
data_I
_chemical_name_common ''
_cell_length_a 14.013
_cell_length_b 15.193
_cell_length_c 15.317
_cell_angle_alpha 86.583
_cell_angle_beta 85.391
_cell_angle_gamma 88.005
_space_group_name_H-M_alt 'P 1'
_space_group_name_Hall 'P 1'
loop_
    _symmetry_equiv_pos_as_xyz
    x,y,z
loop_
    _atom_site_label
    _atom_site_type_symbol
    _atom_site_fract_x
    _atom_site_fract_y
    _atom_site_fract_z
    _atom_site_occupancy
    Zn0     Zn   0.68886   0.61454   0.85303   1.000
    Zn1     Zn   0.10813   0.39583   0.15909   1.000
    Zn2     Zn   0.31095   0.38544   0.14699   1.000
    Zn3     Zn   0.89180   0.60414   0.84091   1.000
    C4      C    0.78108   0.61038   0.01980   1.000
    C5      C    0.78597   0.43698   0.85114   1.000
    C6      C    0.79019   0.78145   0.83925   1.000
    C7      C    0.80212   0.60998   0.67491   1.000
    C8      C    0.21884   0.38961   0.98020   1.000
    C9      C    0.21389   0.56300   0.14880   1.000
    C10     C    0.20975   0.21852   0.16076   1.000
    C11     C    0.19772   0.39001   0.32510   1.000
    O12     O    0.86209   0.61843   0.97718   1.000
    O13     O    0.72290   0.62532   0.71968   1.000
    O14     O    0.70125   0.60040   0.98729   1.000
    O15     O    0.70375   0.47567   0.85142   1.000
    O16     O    0.88261   0.59302   0.70598   1.000
    O17     O    0.86500   0.47423   0.85880   1.000
    O18     O    0.70763   0.75043   0.85924   1.000
    O19     O    0.86737   0.73699   0.82195   1.000
    O20     O    0.13784   0.38154   0.02281   1.000
    O21     O    0.27692   0.37464   0.28032   1.000
    O22     O    0.29867   0.39956   0.01272   1.000
    O23     O    0.29610   0.52430   0.14857   1.000
    O24     O    0.11724   0.40698   0.29404   1.000
    O25     O    0.13484   0.52576   0.14120   1.000
    O26     O    0.29232   0.24954   0.14076   1.000
    O27     O    0.13258   0.26298   0.17807   1.000
loop_
    _geom_bond_atom_site_label_1
    _geom_bond_atom_site_label_2
    _geom_bond_distance
    _geom_bond_site_symmetry_2
    _ccdc_geom_bond_type
    O22    Zn2       2.07534      .   S
    O22    C8        1.27779  1_554   S
    C4     O12       1.26914  1_554   S
    C4     O14       1.27781  1_554   S
    O20    Zn1       2.11797      .   S
    O20    C8        1.26907  1_554   S
    O26    Zn2       2.09895      .   S
    O26    C10       1.27215      .   S
    O25    C9        1.27781      .   S
    O25    Zn1       2.02050      .   S
    Zn2    O23       2.11410      .   S
    Zn2    O21       2.05766      .   S
    O23    C9        1.27483      .   S
    Zn1    O27       2.04295      .   S
    Zn1    O24       2.09841      .   S
    C10    O27       1.27296      .   S
    O21    C11       1.27883      .   S
    O24    C11       1.27125      .   S
    C7     O16       1.27133      .   S
    C7     O13       1.27889      .   S
    O16    Zn3       2.09822      .   S
    O13    Zn0       2.05798      .   S
    O19    C6        1.27295      .   S
    O19    Zn3       2.04292      .   S
    C6     O18       1.27214      .   S
    Zn3    O17       2.02049      .   S
    Zn3    O12       2.11780      .   S
    C5     O15       1.27475      .   S
    C5     O17       1.27794      .   S
    O15    Zn0       2.11431      .   S
    Zn0    O18       2.09907      .   S
    Zn0    O14       2.07544      .   S
    Zn3    Zn0       2.83451      .   S
    Zn1    Zn2       2.83284      .   S
