# CIF file generated by openbabel 2.4.90, see http://openbabel.sf.net
data_I
_chemical_name_common ''
_cell_length_a 15.375
_cell_length_b 15.377
_cell_length_c 17.986
_cell_angle_alpha 95.482
_cell_angle_beta 96.329
_cell_angle_gamma 94.366
_space_group_name_H-M_alt 'P 1'
_space_group_name_Hall 'P 1'
loop_
    _symmetry_equiv_pos_as_xyz
    x,y,z
loop_
    _atom_site_label
    _atom_site_type_symbol
    _atom_site_fract_x
    _atom_site_fract_y
    _atom_site_fract_z
    _atom_site_occupancy
    Zn0     Zn   0.98922   0.98871   0.92210   1.000
    Zn1     Zn   0.77746   0.67849   0.75320   1.000
    Zn2     Zn   0.75307   0.65904   0.59326   1.000
    Zn3     Zn   0.22911   0.31531   0.24715   1.000
    Zn4     Zn   0.25180   0.33730   0.40903   1.000
    Zn5     Zn   0.01084   0.01061   0.08136   1.000
    C6      C    0.98810   0.16918   0.00000   1.000
    C7      C    0.17283   0.01668   0.00887   1.000
    C8      C    0.82679   0.98305   0.99049   1.000
    C9      C    0.59391   0.65802   0.66490   1.000
    C10     C    0.93802   0.67404   0.67900   1.000
    C11     C    0.76544   0.49722   0.66646   1.000
    C12     C    0.76822   0.84047   0.67905   1.000
    C13     C    0.41151   0.33598   0.33794   1.000
    C14     C    0.06721   0.32396   0.31929   1.000
    C15     C    0.24144   0.49800   0.33260   1.000
    C16     C    0.23299   0.15513   0.32490   1.000
    O17     O    0.01132   0.14121   0.06864   1.000
    O18     O    0.96981   0.12215   0.94275   1.000
    O19     O    0.14505   0.01481   0.07311   1.000
    O20     O    0.12495   0.02182   0.94710   1.000
    O21     O    0.00000   0.85957   0.93629   1.000
    O22     O    0.01056   0.87480   0.06318   1.000
    O23     O    0.85519   0.96294   0.92739   1.000
    O24     O    0.87431   0.00000   0.05344   1.000
    O25     O    0.64167   0.66247   0.72790   1.000
    O26     O    0.62118   0.65565   0.60038   1.000
    O27     O    0.91175   0.68906   0.74399   1.000
    O28     O    0.88970   0.66346   0.61653   1.000
    O29     O    0.78487   0.54377   0.72953   1.000
    O30     O    0.74460   0.52554   0.60325   1.000
    O31     O    0.77410   0.81124   0.74333   1.000
    O32     O    0.76364   0.79432   0.61578   1.000
    O33     O    0.36371   0.32920   0.27476   1.000
    O34     O    0.38433   0.34052   0.40254   1.000
    O35     O    0.09353   0.31085   0.25453   1.000
    O36     O    0.11545   0.33197   0.38215   1.000
    O37     O    0.22556   0.45130   0.26946   1.000
    O38     O    0.25941   0.47017   0.39659   1.000
    O39     O    0.22588   0.18411   0.26057   1.000
    O40     O    0.24092   0.20145   0.38832   1.000
    Ts41    Ts   0.99118   0.98800   0.88428   1.000
    Ts42    Ts   0.77820   0.67789   0.79160   1.000
    Ts43    Ts   0.75622   0.65843   0.55518   1.000
    Ts44    Ts   0.22883   0.31560   0.20856   1.000
    Ts45    Ts   0.24748   0.33834   0.44699   1.000
    Ts46    Ts   0.00840   0.01188   0.11929   1.000
    Og47    Og   0.98710   0.20157   0.00000   1.000
    Og48    Og   0.20508   0.01559   0.00778   1.000
    Og49    Og   0.79442   0.98431   0.99072   1.000
    Og50    Og   0.56144   0.65742   0.66553   1.000
    Og51    Og   0.97025   0.67245   0.67833   1.000
    Og52    Og   0.76622   0.46484   0.66672   1.000
    Og53    Og   0.76818   0.87287   0.67841   1.000
    Og54    Og   0.44398   0.33671   0.33720   1.000
    Og55    Og   0.03502   0.32569   0.32026   1.000
    Og56    Og   0.24027   0.53033   0.33226   1.000
    Og57    Og   0.23231   0.12267   0.32539   1.000
loop_
    _geom_bond_atom_site_label_1
    _geom_bond_atom_site_label_2
    _geom_bond_distance
    _geom_bond_site_symmetry_2
    _ccdc_geom_bond_type
    C6     O17       1.36542  1_655   S
    C6     O18       1.19386  1_554   S
    C7     O19       1.27731      .   S
    C7     O20       1.27585  1_554   S
    O24    Zn5       2.09404  1_655   S
    O24    C8        1.27123  1_544   S
    O22    Zn5       2.08220  1_565   S
    O17    Zn5       2.04238      .   S
    O19    Zn5       2.08160      .   S
    Zn5    Zn0       2.83155  1_444   S
    Zn3    O35       2.09969      .   S
    Zn3    O39       2.05227      .   S
    Zn3    O37       2.09719      .   S
    Zn3    O33       2.06411      .   S
    O35    C14       1.27774      .   S
    O39    C16       1.27564      .   S
    O37    C15       1.27332      .   S
    O33    C13       1.27433      .   S
    C14    O36       1.27210      .   S
    C16    O40       1.27445      .   S
    C15    O38       1.27521      .   S
    C13    O34       1.27493      .   S
    O36    Zn4       2.09237      .   S
    O40    Zn4       2.07725      .   S
    O38    Zn4       2.07231      .   S
    O34    Zn4       2.05095      .   S
    Zn2    O26       2.04287      .   S
    Zn2    O30       2.07326      .   S
    Zn2    O32       2.07141      .   S
    Zn2    O28       2.09083      .   S
    O26    C9        1.27488      .   S
    O30    C11       1.27294      .   S
    O32    C12       1.27431      .   S
    O28    C10       1.26632      .   S
    C9     O25       1.27356      .   S
    C11    O29       1.27513      .   S
    C10    O27       1.28436      .   S
    C12    O31       1.27643      .   S
    O25    Zn1       2.07769      .   S
    O29    Zn1       2.08909      .   S
    O31    Zn1       2.06975      .   S
    O27    Zn1       2.08486      .   S
    Zn0    O23       2.08304      .   S
    Zn0    O21       2.04307  1_655   S
    Zn0    O18       2.09980  1_565   S
    Zn0    O20       2.09848  1_665   S
    O23    C8        1.27949      .   S
    Zn1    Zn2       2.84360      .   S
    Zn3    Zn4       2.87807      .   S
    Zn0    Ts41      0.68333      .   S
    Zn1    Ts42      0.69045      .   S
    Zn2    Ts43      0.69114      .   S
    Zn3    Ts44      0.69411      .   S
    Zn4    Ts45      0.69202      .   S
    Zn5    Ts46      0.68585      .   S
    C6     Og47      0.49939      .   S
    C7     Og48      0.49995      .   S
    C8     Og49      0.49997      .   S
    C9     Og50      0.50004      .   S
    C10    Og51      0.49935      .   S
    C11    Og52      0.49937      .   S
    C12    Og53      0.49951      .   S
    C13    Og54      0.50016      .   S
    C14    Og55      0.49969      .   S
    C15    Og56      0.49950      .   S
    C16    Og57      0.49945      .   S
