# CIF file generated by openbabel 2.4.90, see http://openbabel.sf.net
data_I
_chemical_name_common ''
_cell_length_a 19.006
_cell_length_b 18.833
_cell_length_c 18.822
_cell_angle_alpha 89.995
_cell_angle_beta 90.001
_cell_angle_gamma 89.998
_space_group_name_H-M_alt 'P 1'
_space_group_name_Hall 'P 1'
loop_
    _symmetry_equiv_pos_as_xyz
    x,y,z
loop_
    _atom_site_label
    _atom_site_type_symbol
    _atom_site_fract_x
    _atom_site_fract_y
    _atom_site_fract_z
    _atom_site_occupancy
    Al0     Al   0.95806   0.93567   0.33463   1.000
    Al1     Al   0.42170   0.83501   0.54457   1.000
    Al2     Al   0.92171   0.83501   0.54457   1.000
    Al3     Al   0.33284   0.05107   0.56610   1.000
    Al4     Al   0.83284   0.05107   0.56610   1.000
    Al5     Al   0.45806   0.56440   0.16533   1.000
    Al6     Al   0.95806   0.56440   0.16533   1.000
    Al7     Al   0.42172   0.66501   0.95539   1.000
    Al8     Al   0.92173   0.66501   0.95539   1.000
    Al9     Al   0.33283   0.44894   0.93380   1.000
    Al10    Al   0.83283   0.44894   0.93380   1.000
    Al11    Al   0.45820   0.16550   0.93420   1.000
    Al12    Al   0.95821   0.16550   0.93420   1.000
    Al13    Al   0.42179   0.95528   0.83528   1.000
    Al14    Al   0.92180   0.95528   0.83528   1.000
    Al15    Al   0.33265   0.93398   0.05093   1.000
    Al16    Al   0.83266   0.93398   0.05093   1.000
    Al17    Al   0.45820   0.33449   0.56574   1.000
    Al18    Al   0.95821   0.33449   0.56574   1.000
    Al19    Al   0.42180   0.54475   0.66468   1.000
    Al20    Al   0.92181   0.54475   0.66468   1.000
    Al21    Al   0.33266   0.56603   0.44902   1.000
    Al22    Al   0.83266   0.56603   0.44902   1.000
    Al23    Al   0.04196   0.06434   0.66535   1.000
    Al24    Al   0.54197   0.06434   0.66535   1.000
    Al25    Al   0.07831   0.16500   0.45542   1.000
    Al26    Al   0.57832   0.16500   0.45542   1.000
    Al27    Al   0.16717   0.94894   0.43389   1.000
    Al28    Al   0.66718   0.94894   0.43389   1.000
    Al29    Al   0.04195   0.43561   0.83466   1.000
    Al30    Al   0.54196   0.43561   0.83466   1.000
    Al31    Al   0.07829   0.33500   0.04460   1.000
    Al32    Al   0.45805   0.93567   0.33463   1.000
    Al33    Al   0.57830   0.33500   0.04460   1.000
    Al34    Al   0.16718   0.55107   0.06610   1.000
    Al35    Al   0.66719   0.55107   0.06610   1.000
    Al36    Al   0.04181   0.83451   0.06573   1.000
    Al37    Al   0.54182   0.83451   0.06573   1.000
    Al38    Al   0.07822   0.04473   0.16470   1.000
    Al39    Al   0.57823   0.04473   0.16470   1.000
    Al40    Al   0.16736   0.06603   0.94905   1.000
    Al41    Al   0.66737   0.06603   0.94905   1.000
    Al42    Al   0.04181   0.66552   0.43425   1.000
    Al43    Al   0.54182   0.66552   0.43425   1.000
    Al44    Al   0.07821   0.45526   0.33530   1.000
    Al45    Al   0.57822   0.45526   0.33530   1.000
    Al46    Al   0.16735   0.43398   0.55096   1.000
    Al47    Al   0.66736   0.43398   0.55096   1.000
    P48     P    0.33290   0.93310   0.44489   1.000
    P49     P    0.83291   0.93310   0.44400   1.000
    P50     P    0.42137   0.95143   0.66497   1.000
    P51     P    0.92137   0.95143   0.66497   1.000
    P52     P    0.45429   0.16479   0.56664   1.000
    P53     P    0.95430   0.16479   0.56664   1.000
    P54     P    0.33292   0.56696   0.05509   1.000
    P55     P    0.83293   0.56696   0.05509   1.000
    P56     P    0.42135   0.54855   0.83501   1.000
    P57     P    0.92136   0.54855   0.83501   1.000
    P58     P    0.45428   0.33519   0.93340   1.000
    P59     P    0.95429   0.33519   0.93340   1.000
    P60     P    0.33302   0.05514   0.93292   1.000
    P61     P    0.83303   0.05514   0.93292   1.000
    P62     P    0.42132   0.83496   0.95185   1.000
    P63     P    0.92133   0.83496   0.95185   1.000
    P64     P    0.45433   0.93422   0.16463   1.000
    P65     P    0.95433   0.93422   0.16463   1.000
    P66     P    0.33302   0.44487   0.56701   1.000
    P67     P    0.83303   0.44487   0.56701   1.000
    P68     P    0.42133   0.66506   0.54812   1.000
    P69     P    0.92133   0.66506   0.54812   1.000
    P70     P    0.45433   0.56581   0.33533   1.000
    P71     P    0.95434   0.56581   0.33533   1.000
    P72     P    0.16711   0.06691   0.55509   1.000
    P73     P    0.66712   0.06691   0.55509   1.000
    P74     P    0.07865   0.04858   0.33502   1.000
    P75     P    0.57865   0.04858   0.33502   1.000
    P76     P    0.04572   0.83522   0.43334   1.000
    P77     P    0.54573   0.83522   0.43334   1.000
    P78     P    0.16709   0.43305   0.94490   1.000
    P79     P    0.66710   0.43305   0.94490   1.000
    P80     P    0.07866   0.45146   0.16497   1.000
    P81     P    0.57867   0.45146   0.16497   1.000
    P82     P    0.04573   0.66482   0.06659   1.000
    P83     P    0.54574   0.66482   0.06659   1.000
    P84     P    0.16699   0.94487   0.06707   1.000
    P85     P    0.66700   0.94487   0.06707   1.000
    P86     P    0.07869   0.16505   0.04814   1.000
    P87     P    0.57870   0.16505   0.04814   1.000
    P88     P    0.04569   0.06578   0.83530   1.000
    P89     P    0.54569   0.06578   0.83530   1.000
    P90     P    0.16699   0.55514   0.43290   1.000
    P91     P    0.66700   0.55514   0.43290   1.000
    P92     P    0.07868   0.33495   0.45186   1.000
    P93     P    0.57869   0.33495   0.45186   1.000
    P94     P    0.04568   0.43419   0.66465   1.000
    P95     P    0.54569   0.43419   0.66465   1.000
    O96     O    0.37641   0.93850   0.37600   1.000
    O97     O    0.87642   0.93850   0.37650   1.000
    O98     O    0.25542   0.92558   0.42334   1.000
    O99     O    0.75542   0.92558   0.42334   1.000
    O100    O    0.65490   0.99855   0.51174   1.000
    O101    O    0.00630   0.01397   0.34958   1.000
    O102    O    0.50631   0.01397   0.34958   1.000
    O103    O    0.13876   0.99983   0.36096   1.000
    O104    O    0.35432   0.86711   0.48863   1.000
    O105    O    0.85433   0.86711   0.48863   1.000
    O106    O    0.34511   0.00146   0.48824   1.000
    O107    O    0.84512   0.00146   0.48824   1.000
    O108    O    0.49371   0.98604   0.65040   1.000
    O109    O    0.99372   0.98604   0.65040   1.000
    O110    O    0.36125   0.00000   0.63902   1.000
    O111    O    0.86126   0.00000   0.63902   1.000
    O112    O    0.41948   0.87950   0.62638   1.000
    O113    O    0.91949   0.87950   0.62638   1.000
    O114    O    0.41059   0.93824   0.74469   1.000
    O115    O    0.91060   0.93824   0.74469   1.000
    O116    O    0.49727   0.15037   0.49844   1.000
    O117    O    0.99727   0.15037   0.49844   1.000
    O118    O    0.49342   0.13648   0.63263   1.000
    O119    O    0.99342   0.13648   0.63263   1.000
    O120    O    0.38215   0.12902   0.55883   1.000
    O121    O    0.88216   0.12902   0.55883   1.000
    O122    O    0.44199   0.24439   0.57731   1.000
    O123    O    0.94200   0.24439   0.57731   1.000
    O124    O    0.37640   0.56151   0.12350   1.000
    O125    O    0.87641   0.56151   0.12350   1.000
    O126    O    0.25542   0.57446   0.07661   1.000
    O127    O    0.75543   0.57446   0.07661   1.000
    O128    O    0.35438   0.63296   0.01141   1.000
    O129    O    0.85439   0.63296   0.01141   1.000
    O130    O    0.34514   0.49862   0.01169   1.000
    O131    O    0.84515   0.49862   0.01169   1.000
    O132    O    0.00277   0.99792   0.85153   1.000
    O133    O    0.50278   0.99792   0.85153   1.000
    O134    O    0.00635   0.13244   0.86180   1.000
    O135    O    0.50636   0.13244   0.86180   1.000
    O136    O    0.11782   0.05890   0.87127   1.000
    O137    O    0.49367   0.51390   0.84961   1.000
    O138    O    0.99368   0.51390   0.84961   1.000
    O139    O    0.36122   0.49982   0.86094   1.000
    O140    O    0.86123   0.49982   0.86094   1.000
    O141    O    0.41947   0.62049   0.87360   1.000
    O142    O    0.91948   0.62049   0.87360   1.000
    O143    O    0.41060   0.56175   0.75529   1.000
    O144    O    0.91061   0.56175   0.75529   1.000
    O145    O    0.49720   0.34957   0.00165   1.000
    O146    O    0.99721   0.34957   0.00165   1.000
    O147    O    0.49345   0.36348   0.86743   1.000
    O148    O    0.99346   0.36348   0.86743   1.000
    O149    O    0.38215   0.37099   0.94116   1.000
    O150    O    0.88216   0.37099   0.94110   1.000
    O151    O    0.44195   0.25560   0.92270   1.000
    O152    O    0.94196   0.25560   0.92270   1.000
    O153    O    0.37661   0.12348   0.93832   1.000
    O154    O    0.87661   0.12348   0.93832   1.000
    O155    O    0.25552   0.07671   0.92549   1.000
    O156    O    0.75553   0.07671   0.92549   1.000
    O157    O    0.35431   0.01136   0.86690   1.000
    O158    O    0.85432   0.01136   0.86690   1.000
    O159    O    0.34513   0.01175   0.00130   1.000
    O160    O    0.84514   0.01175   0.00130   1.000
    O161    O    0.49340   0.84902   0.98732   1.000
    O162    O    0.99341   0.84902   0.98732   1.000
    O163    O    0.36098   0.86097   0.00000   1.000
    O164    O    0.86099   0.86097   0.00000   1.000
    O165    O    0.41978   0.87360   0.87990   1.000
    O166    O    0.91979   0.87360   0.87990   1.000
    O167    O    0.41033   0.75542   0.93819   1.000
    O168    O    0.91034   0.75542   0.93819   1.000
    O169    O    0.49724   0.00209   0.14845   1.000
    O170    O    0.99725   0.00209   0.14845   1.000
    O171    O    0.49366   0.86757   0.13819   1.000
    O172    O    0.99366   0.86757   0.13819   1.000
    O173    O    0.38219   0.94111   0.12872   1.000
    O174    O    0.88220   0.94111   0.12872   1.000
    O175    O    0.44188   0.92558   0.24440   1.000
    O176    O    0.94189   0.92558   0.24440   1.000
    O177    O    0.37661   0.37653   0.56167   1.000
    O178    O    0.87662   0.37653   0.56167   1.000
    O179    O    0.25553   0.42329   0.57447   1.000
    O180    O    0.75554   0.42329   0.57447   1.000
    O181    O    0.35430   0.48873   0.63290   1.000
    O182    O    0.85431   0.48873   0.63290   1.000
    O183    O    0.34513   0.48819   0.49850   1.000
    O184    O    0.84513   0.48819   0.49850   1.000
    O185    O    0.49341   0.65100   0.51266   1.000
    O186    O    0.99341   0.65100   0.51266   1.000
    O187    O    0.36099   0.63902   0.49975   1.000
    O188    O    0.86100   0.63902   0.49975   1.000
    O189    O    0.41980   0.62644   0.62008   1.000
    O190    O    0.91981   0.62644   0.62008   1.000
    O191    O    0.41033   0.74460   0.56170   1.000
    O192    O    0.91033   0.74460   0.56170   1.000
    O193    O    0.49724   0.49794   0.35153   1.000
    O194    O    0.99725   0.49794   0.35153   1.000
    O195    O    0.49365   0.63246   0.36179   1.000
    O196    O    0.99366   0.63246   0.36179   1.000
    O197    O    0.38219   0.55893   0.37122   1.000
    O198    O    0.88219   0.55893   0.37122   1.000
    O199    O    0.44191   0.57447   0.25553   1.000
    O200    O    0.94192   0.57447   0.25553   1.000
    O201    O    0.12360   0.06151   0.62349   1.000
    O202    O    0.62361   0.06151   0.62349   1.000
    O203    O    0.24460   0.07443   0.57665   1.000
    O204    O    0.74460   0.07443   0.57665   1.000
    O205    O    0.14569   0.13289   0.51130   1.000
    O206    O    0.64570   0.13289   0.51136   1.000
    O207    O    0.15490   0.99855   0.51174   1.000
    O208    O    0.63877   0.99983   0.36096   1.000
    O209    O    0.08053   0.12051   0.37360   1.000
    O210    O    0.58054   0.12051   0.37360   1.000
    O211    O    0.08942   0.06177   0.25530   1.000
    O212    O    0.58942   0.06177   0.25530   1.000
    O213    O    0.00275   0.84964   0.50155   1.000
    O214    O    0.50275   0.84964   0.50155   1.000
    O215    O    0.00660   0.86353   0.36736   1.000
    O216    O    0.50660   0.86353   0.36736   1.000
    O217    O    0.11786   0.87099   0.44110   1.000
    O218    O    0.61787   0.87099   0.44110   1.000
    O219    O    0.05802   0.75562   0.42268   1.000
    O220    O    0.55803   0.75562   0.42268   1.000
    O221    O    0.12361   0.43850   0.87648   1.000
    O222    O    0.62362   0.43850   0.87648   1.000
    O223    O    0.24459   0.42555   0.92338   1.000
    O224    O    0.74460   0.42555   0.92338   1.000
    O225    O    0.14563   0.36705   0.98857   1.000
    O226    O    0.64563   0.36705   0.98857   1.000
    O227    O    0.15487   0.50138   0.98829   1.000
    O228    O    0.65488   0.50139   0.98829   1.000
    O229    O    0.00634   0.48611   0.15038   1.000
    O230    O    0.50635   0.48611   0.15038   1.000
    O231    O    0.13879   0.50019   0.13905   1.000
    O232    O    0.63880   0.50019   0.13905   1.000
    O233    O    0.08054   0.37952   0.12639   1.000
    O234    O    0.58054   0.37952   0.12639   1.000
    O235    O    0.08941   0.43826   0.24470   1.000
    O236    O    0.58942   0.43826   0.24470   1.000
    O237    O    0.00281   0.65044   0.99833   1.000
    O238    O    0.50282   0.65043   0.99830   1.000
    O239    O    0.00656   0.63653   0.13255   1.000
    O240    O    0.50657   0.63653   0.13250   1.000
    O241    O    0.11786   0.62902   0.05882   1.000
    O242    O    0.61787   0.62902   0.05882   1.000
    O243    O    0.05806   0.74441   0.07729   1.000
    O244    O    0.55807   0.74441   0.07729   1.000
    O245    O    0.12341   0.87653   0.06167   1.000
    O246    O    0.62341   0.87653   0.06167   1.000
    O247    O    0.24449   0.92330   0.07449   1.000
    O248    O    0.74450   0.92330   0.07449   1.000
    O249    O    0.14570   0.98865   0.13309   1.000
    O250    O    0.64571   0.98865   0.13309   1.000
    O251    O    0.15488   0.98826   0.99869   1.000
    O252    O    0.65489   0.98826   0.99869   1.000
    O253    O    0.00661   0.15099   0.01267   1.000
    O254    O    0.50662   0.15099   0.01267   1.000
    O255    O    0.13903   0.13904   0.99975   1.000
    O256    O    0.63904   0.13904   0.99975   1.000
    O257    O    0.08023   0.12641   0.12000   1.000
    O258    O    0.58024   0.12641   0.12000   1.000
    O259    O    0.08968   0.24459   0.06180   1.000
    O260    O    0.58969   0.24459   0.06180   1.000
    O261    O    0.61782   0.05890   0.87127   1.000
    O262    O    0.05813   0.07443   0.75555   1.000
    O263    O    0.55814   0.07443   0.75555   1.000
    O264    O    0.12340   0.62348   0.43831   1.000
    O265    O    0.62341   0.62348   0.43831   1.000
    O266    O    0.24448   0.57672   0.42552   1.000
    O267    O    0.74449   0.57672   0.42552   1.000
    O268    O    0.14571   0.51128   0.36700   1.000
    O269    O    0.64572   0.51128   0.36700   1.000
    O270    O    0.15489   0.51182   0.50141   1.000
    O271    O    0.65489   0.51182   0.50141   1.000
    O272    O    0.00661   0.34901   0.48733   1.000
    O273    O    0.50661   0.34901   0.48733   1.000
    O274    O    0.13902   0.36099   0.50020   1.000
    O275    O    0.63903   0.36099   0.50020   1.000
    O276    O    0.08021   0.37357   0.37990   1.000
    O277    O    0.58022   0.37357   0.37990   1.000
    O278    O    0.08968   0.25541   0.43822   1.000
    O279    O    0.58969   0.25541   0.43822   1.000
    O280    O    0.00277   0.50207   0.64846   1.000
    O281    O    0.50278   0.50207   0.64846   1.000
    O282    O    0.00636   0.36755   0.63819   1.000
    O283    O    0.50637   0.36755   0.63819   1.000
    O284    O    0.11782   0.44108   0.62877   1.000
    O285    O    0.61783   0.44108   0.62877   1.000
    O286    O    0.05810   0.42554   0.74446   1.000
    O287    O    0.55811   0.42554   0.74446   1.000
loop_
    _geom_bond_atom_site_label_1
    _geom_bond_atom_site_label_2
    _geom_bond_distance
    _geom_bond_site_symmetry_2
    _ccdc_geom_bond_type
    O163   Al15      1.76069      .   S
    O163   P62       1.54161  1_554   S
    O164   Al16      1.76069      .   S
    O164   P63       1.54161  1_554   S
    O160   Al16      1.75317  1_545   S
    O160   P61       1.54181  1_554   S
    O159   Al15      1.75317  1_545   S
    O159   P60       1.54181  1_554   S
    O145   Al33      1.76198      .   S
    O145   P58       1.54565  1_554   S
    O146   Al31      1.76172  1_655   S
    O146   P59       1.54565  1_554   S
    O128   P54       1.54510      .   S
    O128   Al7       1.76467  1_554   S
    O129   P55       1.54510      .   S
    O129   Al8       1.76467  1_554   S
    O131   P55       1.54201      .   S
    O131   Al10      1.75493  1_554   S
    O130   P54       1.54201      .   S
    O130   Al9       1.75494  1_554   S
    O254   P87       1.54678      .   S
    O254   Al11      1.76146  1_554   S
    O253   P86       1.54678      .   S
    O253   Al12      1.76130  1_454   S
    Al33   O260      1.74663      .   S
    Al33   O234      1.75361      .   S
    Al33   O226      1.76479  1_554   S
    Al31   O259      1.74663      .   S
    Al31   O233      1.75361      .   S
    Al31   O225      1.76479  1_554   S
    P87    O260      1.53411      .   S
    P87    O258      1.53614      .   S
    P87    O256      1.54429  1_554   S
    P86    O259      1.53411      .   S
    P86    O257      1.53614      .   S
    P86    O255      1.54429  1_554   S
    Al15   O247      1.74498      .   S
    Al15   O173      1.74597      .   S
    Al16   O248      1.74498      .   S
    Al16   O174      1.74597      .   S
    P54    O126      1.53409      .   S
    P54    O124      1.53343      .   S
    P55    O127      1.53409      .   S
    P55    O125      1.53343      .   S
    O242   Al35      1.74715      .   S
    O242   P83       1.53471      .   S
    O241   Al34      1.74716      .   S
    O241   P82       1.53471      .   S
    O246   Al37      1.74278      .   S
    O246   P85       1.53391      .   S
    O245   Al36      1.74278      .   S
    O245   P84       1.53391      .   S
    Al36   O243      1.73829      .   S
    Al36   O172      1.75649  1_455   S
    Al36   O162      1.76035  1_454   S
    Al37   O244      1.73829      .   S
    Al37   O171      1.75665      .   S
    Al37   O161      1.76051  1_554   S
    Al34   O126      1.74519      .   S
    Al34   O231      1.75916      .   S
    Al34   O227      1.75368  1_554   S
    Al35   O127      1.74521      .   S
    Al35   O232      1.75915      .   S
    Al35   O228      1.75367  1_554   S
    P82    O243      1.53045      .   S
    P82    O239      1.54254      .   S
    P82    O237      1.54580  1_554   S
    P83    O244      1.53045      .   S
    P83    O240      1.54178      .   S
    P83    O238      1.54627  1_554   S
    P84    O247      1.53421      .   S
    P84    O249      1.54531      .   S
    P84    O251      1.54180  1_554   S
    P85    O248      1.53421      .   S
    P85    O250      1.54531      .   S
    P85    O252      1.54180  1_554   S
    O257   Al38      1.75365      .   S
    O258   Al39      1.75365      .   S
    O125   Al6       1.74110      .   S
    O124   Al5       1.74110      .   S
    O234   P81       1.53756      .   S
    O233   P80       1.53756      .   S
    O174   P65       1.53395      .   S
    O173   P64       1.53395      .   S
    O240   Al5       1.75426      .   S
    O239   Al6       1.75379  1_455   S
    O249   Al38      1.76478  1_565   S
    O250   Al39      1.76478  1_565   S
    O171   P64       1.54345      .   S
    O172   P65       1.54345      .   S
    O231   P80       1.54475      .   S
    O232   P81       1.54475      .   S
    O169   P64       1.54639  1_545   S
    O169   Al39      1.76292      .   S
    O170   P65       1.54639  1_545   S
    O170   Al38      1.76265  1_655   S
    O229   P80       1.54609      .   S
    O229   Al6       1.75922  1_455   S
    O230   P81       1.54609      .   S
    O230   Al5       1.75939      .   S
    P65    O176      1.52863      .   S
    P64    O175      1.52863      .   S
    Al38   O211      1.74822      .   S
    Al39   O212      1.74822      .   S
    P81    O236      1.53476      .   S
    P80    O235      1.53476      .   S
    Al6    O200      1.73566      .   S
    Al5    O199      1.73566      .   S
    O175   Al32      1.73632      .   S
    O176   Al0       1.73632      .   S
    O235   Al44      1.74812      .   S
    O236   Al45      1.74812      .   S
    O211   P74       1.53461      .   S
    O212   P75       1.53461      .   S
    O199   P70       1.52911      .   S
    O200   P71       1.52911      .   S
    Al0    O101      1.75920  1_665   S
    Al0    O215      1.75385  1_655   S
    Al0    O97       1.74107      .   S
    Al32   O102      1.75936  1_565   S
    Al32   O216      1.75401      .   S
    Al32   O96       1.73683      .   S
    P75    O102      1.54611      .   S
    P75    O208      1.54481  1_545   S
    P75    O210      1.53750      .   S
    P74    O101      1.54611      .   S
    P74    O103      1.54481  1_545   S
    P74    O209      1.53750      .   S
    Al44   O194      1.76266  1_455   S
    Al44   O268      1.76496      .   S
    Al44   O276      1.75291      .   S
    Al45   O193      1.76292      .   S
    Al45   O269      1.76496      .   S
    Al45   O277      1.75291      .   S
    P71    O194      1.54658      .   S
    P71    O196      1.54346      .   S
    P71    O198      1.53404      .   S
    P70    O193      1.54658      .   S
    P70    O195      1.54346      .   S
    P70    O197      1.53404      .   S
    O208   Al28      1.75901      .   S
    O103   Al27      1.75901      .   S
    O195   Al43      1.75665      .   S
    O196   Al42      1.75649  1_655   S
    O269   P91       1.54418      .   S
    O268   P90       1.54418      .   S
    O215   P76       1.54249      .   S
    O216   P77       1.54249      .   S
    O197   Al21      1.74597      .   S
    O198   Al22      1.74597      .   S
    O209   Al25      1.75373      .   S
    O210   Al26      1.75373      .   S
    O96    P48       1.54129      .   S
    O97    P49       1.51935      .   S
    O277   P93       1.53762      .   S
    O276   P92       1.53762      .   S
    O219   P76       1.53046      .   S
    O219   Al42      1.73830      .   S
    O220   P77       1.53044      .   S
    O220   Al43      1.73831      .   S
    O99    Al28      1.74516      .   S
    O99    P49       1.52971      .   S
    O98    Al27      1.74516      .   S
    O98    P48       1.53406      .   S
    O266   P90       1.53411      .   S
    O266   Al21      1.74493      .   S
    O267   P91       1.53411      .   S
    O267   Al22      1.74493      .   S
    P91    O265      1.53405      .   S
    P91    O271      1.54309      .   S
    P90    O264      1.53405      .   S
    P90    O270      1.54310      .   S
    P77    O218      1.53462      .   S
    P77    O214      1.54570      .   S
    P76    O217      1.53462      .   S
    P76    O213      1.54570      .   S
    Al28   O218      1.74710      .   S
    Al28   O100      1.75349      .   S
    Al27   O217      1.74710      .   S
    Al27   O207      1.75348      .   S
    Al42   O264      1.74276      .   S
    Al42   O186      1.76037  1_455   S
    Al43   O265      1.74276      .   S
    Al43   O185      1.76053      .   S
    O279   P93       1.53413      .   S
    O279   Al26      1.74670      .   S
    O278   P92       1.53413      .   S
    O278   Al25      1.74670      .   S
    P49    O107      1.55081  1_565   S
    P49    O105      1.55412      .   S
    P48    O106      1.54188  1_565   S
    P48    O104      1.54514      .   S
    Al22   O184      1.75276      .   S
    Al22   O188      1.75831      .   S
    Al21   O183      1.75276      .   S
    Al21   O187      1.75831      .   S
    P92    O272      1.54680      .   S
    P92    O274      1.54385      .   S
    P93    O273      1.54680      .   S
    P93    O275      1.54385      .   S
    Al26   O116      1.76197      .   S
    Al26   O206      1.76461      .   S
    Al25   O117      1.76171  1_455   S
    Al25   O205      1.76394      .   S
    O273   Al17      1.76054      .   S
    O272   Al18      1.76038  1_455   S
    O106   Al3       1.75363      .   S
    O107   Al4       1.75363      .   S
    O105   Al2       1.76461      .   S
    O104   Al1       1.76461      .   S
    O117   P53       1.54554      .   S
    O116   P52       1.54554      .   S
    O183   P66       1.54310      .   S
    O184   P67       1.54310      .   S
    O188   P69       1.54420      .   S
    O187   P68       1.54420      .   S
    O274   Al46      1.75862      .   S
    O275   Al47      1.75862      .   S
    O270   Al46      1.75346      .   S
    O271   Al47      1.75347      .   S
    O214   Al1       1.76198      .   S
    O213   Al2       1.76171  1_455   S
    O205   P72       1.54564      .   S
    O206   P73       1.54505      .   S
    O100   P73       1.54186  1_565   S
    O207   P72       1.54187  1_565   S
    O185   P68       1.54672      .   S
    O186   P69       1.54672      .   S
    Al1    O191      1.74646      .   S
    Al1    O112      1.75357      .   S
    Al2    O192      1.74646      .   S
    Al2    O113      1.75357      .   S
    P68    O191      1.53394      .   S
    P68    O189      1.53761      .   S
    P69    O192      1.53394      .   S
    P69    O190      1.53761      .   S
    Al47   O180      1.74499      .   S
    Al47   O285      1.74612      .   S
    Al46   O179      1.74499      .   S
    Al46   O284      1.74612      .   S
    P73    O204      1.53411      .   S
    P73    O202      1.53353      .   S
    P72    O203      1.53411      .   S
    P72    O201      1.53353      .   S
    O121   Al4       1.74719      .   S
    O121   P53       1.53471      .   S
    O120   Al3       1.74718      .   S
    O120   P52       1.53472      .   S
    O178   Al18      1.74277      .   S
    O178   P67       1.53396      .   S
    O177   Al17      1.74277      .   S
    O177   P66       1.53396      .   S
    Al17   O122      1.73829      .   S
    Al17   O283      1.75651      .   S
    Al18   O123      1.73830      .   S
    Al18   O282      1.75635  1_655   S
    Al3    O203      1.74518      .   S
    Al3    O110      1.76072      .   S
    Al4    O204      1.74518      .   S
    Al4    O111      1.76072      .   S
    P53    O123      1.53046      .   S
    P53    O119      1.54265      .   S
    P52    O122      1.53046      .   S
    P52    O118      1.54265      .   S
    P67    O180      1.53422      .   S
    P67    O182      1.54404      .   S
    P66    O179      1.53422      .   S
    P66    O181      1.54404      .   S
    O190   Al20      1.75292      .   S
    O189   Al19      1.75292      .   S
    O201   Al23      1.74099      .   S
    O202   Al24      1.74101      .   S
    O113   P51       1.53761      .   S
    O112   P50       1.53761      .   S
    O285   P95       1.53396      .   S
    O284   P94       1.53396      .   S
    O118   Al24      1.75395      .   S
    O119   Al23      1.75380  1_655   S
    O182   Al20      1.76545      .   S
    O181   Al19      1.76545      .   S
    O282   P94       1.54345      .   S
    O283   P95       1.54345      .   S
    O111   P51       1.54284  1_545   S
    O110   P50       1.54284  1_545   S
    O280   P94       1.54653      .   S
    O280   Al20      1.76264  1_455   S
    O281   P95       1.54653      .   S
    O281   Al19      1.76291      .   S
    O108   P50       1.54615      .   S
    O108   Al24      1.75934  1_565   S
    O109   P51       1.54615      .   S
    O109   Al23      1.75919  1_665   S
    P94    O286      1.52930      .   S
    P95    O287      1.52930      .   S
    Al19   O143      1.74831      .   S
    Al20   O144      1.74831      .   S
    P50    O114      1.53461      .   S
    P51    O115      1.53461      .   S
    Al24   O263      1.73577      .   S
    Al23   O262      1.73576      .   S
    O286   Al29      1.73566      .   S
    O287   Al30      1.73566      .   S
    O115   Al14      1.74804      .   S
    O114   Al13      1.74804      .   S
    O143   P56       1.53458      .   S
    O144   P57       1.53458      .   S
    O263   P89       1.52826      .   S
    O262   P88       1.52826      .   S
    Al29   O138      1.75923  1_455   S
    Al29   O148      1.75372  1_455   S
    Al29   O221      1.74102      .   S
    Al30   O137      1.75939      .   S
    Al30   O147      1.75386      .   S
    Al30   O222      1.74102      .   S
    P56    O137      1.54614      .   S
    P56    O139      1.54481      .   S
    P56    O141      1.53765      .   S
    P57    O138      1.54613      .   S
    P57    O140      1.54481      .   S
    P57    O142      1.53765      .   S
    Al13   O133      1.76292      .   S
    Al13   O157      1.76484  1_565   S
    Al13   O165      1.75294      .   S
    Al14   O132      1.76265  1_655   S
    Al14   O158      1.76484  1_565   S
    Al14   O166      1.75294      .   S
    P88    O132      1.54656  1_545   S
    P88    O134      1.54383      .   S
    P88    O136      1.53445      .   S
    P89    O133      1.54656  1_545   S
    P89    O135      1.54383      .   S
    P89    O261      1.53445      .   S
    O140   Al10      1.75783      .   S
    O139   Al9       1.75784      .   S
    O134   Al12      1.75561  1_455   S
    O135   Al11      1.75577      .   S
    O157   P60       1.54532      .   S
    O158   P61       1.54532      .   S
    O148   P59       1.54269      .   S
    O147   P58       1.54269      .   S
    O261   Al41      1.74582      .   S
    O136   Al40      1.74582      .   S
    O142   Al8       1.75361      .   S
    O141   Al7       1.75361      .   S
    O221   P78       1.53360      .   S
    O222   P79       1.53360      .   S
    O166   P63       1.53764      .   S
    O165   P62       1.53764      .   S
    O151   P58       1.53045      .   S
    O151   Al11      1.73817      .   S
    O152   P59       1.53045      .   S
    O152   Al12      1.73817      .   S
    O224   Al10      1.74501      .   S
    O224   P79       1.53409      .   S
    O223   Al9       1.74500      .   S
    O223   P78       1.53409      .   S
    O155   P60       1.53422      .   S
    O155   Al40      1.74496      .   S
    O156   P61       1.53422      .   S
    O156   Al41      1.74496      .   S
    P61    O154      1.53393      .   S
    P60    O153      1.53393      .   S
    P59    O150      1.53458      .   S
    P58    O149      1.53469      .   S
    Al10   O150      1.74720      .   S
    Al9    O149      1.74727      .   S
    Al12   O154      1.74281      .   S
    Al11   O153      1.74281      .   S
    O167   P62       1.53409      .   S
    O167   Al7       1.74663      .   S
    O168   P63       1.53409      .   S
    O168   Al8       1.74663      .   S
    P79    O228      1.54191      .   S
    P79    O226      1.54500      .   S
    P78    O227      1.54190      .   S
    P78    O225      1.54500      .   S
    Al41   O252      1.75329  1_545   S
    Al41   O256      1.75832      .   S
    Al40   O251      1.75329  1_545   S
    Al40   O255      1.75832      .   S
    P63    O162      1.54678      .   S
    P62    O161      1.54678      .   S
    Al8    O237      1.76165  1_655   S
    Al7    O238      1.76164      .   S
