# CIF file generated by openbabel 2.4.90, see http://openbabel.sf.net
data_I
_chemical_name_common ''
_cell_length_a 19.314
_cell_length_b 21.4
_cell_length_c 26.004
_cell_angle_alpha 57.185
_cell_angle_beta 75.071
_cell_angle_gamma 69.375
_space_group_name_H-M_alt 'P 1'
_space_group_name_Hall 'P 1'
loop_
    _symmetry_equiv_pos_as_xyz
    x,y,z
loop_
    _atom_site_label
    _atom_site_type_symbol
    _atom_site_fract_x
    _atom_site_fract_y
    _atom_site_fract_z
    _atom_site_occupancy
    La0     La   0.14562   0.00262   0.74683   1.000
    La1     La   0.14565   0.50257   0.24686   1.000
    La2     La   0.14563   0.50263   0.74681   1.000
    La3     La   0.64567   0.00264   0.24675   1.000
    La4     La   0.64562   0.00263   0.74680   1.000
    La5     La   0.64566   0.50257   0.24685   1.000
    La6     La   0.64563   0.50264   0.74681   1.000
    La7     La   0.35446   0.49743   0.25317   1.000
    La8     La   0.35444   0.49750   0.75312   1.000
    La9     La   0.35447   0.99744   0.25314   1.000
    La10    La   0.35441   0.99743   0.75321   1.000
    La11    La   0.85446   0.49744   0.25316   1.000
    La12    La   0.85444   0.49750   0.75312   1.000
    La13    La   0.85447   0.99745   0.25314   1.000
    La14    La   0.85442   0.99744   0.75321   1.000
    La15    La   0.14567   0.00264   0.24676   1.000
    C16     C    0.27189   0.40473   0.20411   1.000
    C17     C    0.27187   0.40478   0.70408   1.000
    C18     C    0.27198   0.90480   0.20400   1.000
    C19     C    0.27193   0.90481   0.70407   1.000
    C20     C    0.77190   0.40473   0.20411   1.000
    C21     C    0.77187   0.40478   0.70408   1.000
    C22     C    0.77199   0.90480   0.20401   1.000
    C23     C    0.77194   0.90481   0.70407   1.000
    C24     C    0.03477   0.37445   0.28872   1.000
    C25     C    0.03474   0.37451   0.78869   1.000
    C26     C    0.03481   0.87450   0.28870   1.000
    C27     C    0.03477   0.87449   0.78875   1.000
    C28     C    0.53477   0.37445   0.28872   1.000
    C29     C    0.53474   0.37452   0.78869   1.000
    C30     C    0.53482   0.87450   0.28870   1.000
    C31     C    0.53477   0.87450   0.78875   1.000
    C32     C    0.25116   0.37683   0.37470   1.000
    C33     C    0.25114   0.37689   0.87465   1.000
    C34     C    0.25114   0.87681   0.37463   1.000
    C35     C    0.25108   0.87680   0.87470   1.000
    C36     C    0.75117   0.37684   0.37469   1.000
    C37     C    0.75115   0.37690   0.87465   1.000
    C38     C    0.75114   0.87682   0.37460   1.000
    C39     C    0.75109   0.87681   0.87470   1.000
    O40     O    0.69203   0.09664   0.64787   1.000
    O41     O    0.69202   0.59659   0.14787   1.000
    O42     O    0.69200   0.59666   0.64782   1.000
    C43     C    0.22815   0.09526   0.29590   1.000
    C44     C    0.22809   0.09527   0.79596   1.000
    C45     C    0.22822   0.59529   0.29500   1.000
    C46     C    0.22819   0.59534   0.79587   1.000
    C47     C    0.72816   0.09526   0.29590   1.000
    C48     C    0.72810   0.09527   0.79590   1.000
    C49     C    0.72823   0.59530   0.29589   1.000
    C50     C    0.72820   0.59534   0.79580   1.000
    C51     C    0.46532   0.12558   0.21121   1.000
    C52     C    0.46527   0.12557   0.71127   1.000
    C53     C    0.46535   0.62555   0.21129   1.000
    C54     C    0.46532   0.62561   0.71120   1.000
    C55     C    0.96532   0.12558   0.21121   1.000
    C56     C    0.96528   0.12558   0.71127   1.000
    C57     C    0.96535   0.62555   0.21129   1.000
    C58     C    0.96532   0.62561   0.71126   1.000
    C59     C    0.24899   0.12326   0.12527   1.000
    C60     C    0.24894   0.12325   0.62534   1.000
    C61     C    0.24895   0.62318   0.12533   1.000
    C62     C    0.24893   0.62324   0.62528   1.000
    C63     C    0.74900   0.12326   0.12527   1.000
    C64     C    0.74895   0.12326   0.62534   1.000
    C65     C    0.74896   0.62318   0.12530   1.000
    C66     C    0.74893   0.62324   0.62528   1.000
    O67     O    0.20384   0.42390   0.19566   1.000
    O68     O    0.20382   0.42395   0.69563   1.000
    O69     O    0.20394   0.92400   0.19554   1.000
    O70     O    0.20389   0.92400   0.69559   1.000
    O71     O    0.70385   0.42390   0.19566   1.000
    O72     O    0.70383   0.42395   0.69562   1.000
    O73     O    0.70395   0.92400   0.19554   1.000
    O74     O    0.70390   0.92401   0.69559   1.000
    O75     O    0.29517   0.43691   0.22410   1.000
    O76     O    0.29514   0.43697   0.72406   1.000
    O77     O    0.29527   0.93698   0.22399   1.000
    O78     O    0.29521   0.93697   0.72406   1.000
    O79     O    0.79518   0.43691   0.22409   1.000
    O80     O    0.79515   0.43697   0.72406   1.000
    O81     O    0.79528   0.93699   0.22390   1.000
    O82     O    0.79522   0.93698   0.72406   1.000
    O83     O    0.46797   0.39346   0.27633   1.000
    O84     O    0.46794   0.39353   0.77630   1.000
    O85     O    0.46800   0.89349   0.27630   1.000
    O86     O    0.46795   0.89349   0.77641   1.000
    O87     O    0.96796   0.39346   0.27633   1.000
    O88     O    0.96794   0.39352   0.77630   1.000
    O89     O    0.96800   0.89349   0.27635   1.000
    O90     O    0.96795   0.89348   0.77641   1.000
    O91     O    0.06332   0.41935   0.28923   1.000
    O92     O    0.06330   0.41941   0.78919   1.000
    O93     O    0.06339   0.91942   0.28910   1.000
    O94     O    0.06334   0.91941   0.78922   1.000
    O95     O    0.56333   0.41935   0.28922   1.000
    O96     O    0.56330   0.41941   0.78919   1.000
    O97     O    0.56339   0.91942   0.28915   1.000
    O98     O    0.56334   0.91941   0.78922   1.000
    O99     O    0.19436   0.40204   0.34551   1.000
    O100    O    0.19433   0.40210   0.84547   1.000
    O101    O    0.19434   0.90200   0.34544   1.000
    O102    O    0.19428   0.90199   0.84552   1.000
    O103    O    0.69436   0.40205   0.34550   1.000
    O104    O    0.69434   0.40211   0.84546   1.000
    O105    O    0.69434   0.90200   0.34544   1.000
    O106    O    0.69429   0.90199   0.84552   1.000
    O107    O    0.30810   0.40341   0.35216   1.000
    O108    O    0.30807   0.40348   0.85211   1.000
    O109    O    0.30806   0.90342   0.35200   1.000
    O110    O    0.30800   0.90342   0.85216   1.000
    O111    O    0.80811   0.40342   0.35216   1.000
    O112    O    0.80808   0.40349   0.85211   1.000
    O113    O    0.80806   0.90343   0.35209   1.000
    O114    O    0.80801   0.90343   0.85216   1.000
    O115    O    0.29619   0.07605   0.30430   1.000
    O116    O    0.29613   0.07606   0.80444   1.000
    O117    O    0.29627   0.57613   0.30434   1.000
    O118    O    0.29624   0.57618   0.80431   1.000
    O119    O    0.79620   0.07606   0.30438   1.000
    O120    O    0.79614   0.07607   0.80443   1.000
    O121    O    0.79628   0.57613   0.30434   1.000
    O122    O    0.79625   0.57618   0.80431   1.000
    O123    O    0.20487   0.06310   0.27590   1.000
    O124    O    0.20481   0.06309   0.77597   1.000
    O125    O    0.20495   0.56310   0.27592   1.000
    O126    O    0.20492   0.56315   0.77580   1.000
    O127    O    0.70488   0.06311   0.27500   1.000
    O128    O    0.70482   0.06310   0.77597   1.000
    O129    O    0.70496   0.56310   0.27592   1.000
    O130    O    0.70493   0.56316   0.77588   1.000
    O131    O    0.03214   0.10659   0.22350   1.000
    O132    O    0.03209   0.10658   0.72361   1.000
    O133    O    0.03214   0.60653   0.22370   1.000
    O134    O    0.03212   0.60659   0.72367   1.000
    O135    O    0.53214   0.10659   0.22355   1.000
    O136    O    0.53209   0.10658   0.72361   1.000
    O137    O    0.53214   0.60653   0.22369   1.000
    O138    O    0.53212   0.60659   0.72366   1.000
    O139    O    0.43675   0.08067   0.21074   1.000
    O140    O    0.43669   0.08066   0.71081   1.000
    O141    O    0.43679   0.58065   0.21070   1.000
    O142    O    0.43676   0.58072   0.71075   1.000
    O143    O    0.93675   0.08067   0.21073   1.000
    O144    O    0.93670   0.08066   0.71080   1.000
    O145    O    0.93680   0.58065   0.21078   1.000
    O146    O    0.93677   0.58072   0.71075   1.000
    O147    O    0.30579   0.09808   0.15445   1.000
    O148    O    0.30574   0.09807   0.65453   1.000
    O149    O    0.30577   0.59796   0.15450   1.000
    O150    O    0.30574   0.59802   0.65446   1.000
    O151    O    0.80580   0.09808   0.15445   1.000
    O152    O    0.80575   0.09807   0.65453   1.000
    O153    O    0.80578   0.59797   0.15450   1.000
    O154    O    0.80575   0.59803   0.65446   1.000
    O155    O    0.19208   0.09664   0.14780   1.000
    O156    O    0.19202   0.09664   0.64787   1.000
    O157    O    0.19202   0.59658   0.14787   1.000
    O158    O    0.19199   0.59666   0.64782   1.000
    O159    O    0.69208   0.09665   0.14780   1.000
loop_
    _geom_bond_atom_site_label_1
    _geom_bond_atom_site_label_2
    _geom_bond_distance
    _geom_bond_site_symmetry_2
    _ccdc_geom_bond_type
    C59    O155      1.27425      .   S
    C59    O147      1.28021      .   S
    C63    O159      1.27425      .   S
    C63    O151      1.28019      .   S
    C65    O41       1.27424      .   S
    C65    O153      1.28068      .   S
    C61    O157      1.27424      .   S
    C61    O149      1.28020      .   S
    O159   La3       2.43782      .   S
    O155   La15      2.43793      .   S
    O157   La1       2.43811      .   S
    O41    La5       2.43799      .   S
    O147   La9       2.43602  1_545   S
    O151   La13      2.43600  1_545   S
    O153   La11      2.43520      .   S
    O149   La7       2.43541      .   S
    O73    C22       1.27083      .   S
    O73    La3       2.48891  1_565   S
    O69    C18       1.27074      .   S
    O69    La15      2.48907  1_565   S
    O67    C16       1.27092      .   S
    O67    La1       2.48912      .   S
    O71    C20       1.27090      .   S
    O71    La5       2.48892      .   S
    C18    O77       1.29368      .   S
    C22    O81       1.29169      .   S
    C16    O75       1.29340      .   S
    C20    O79       1.29321      .   S
    O141   C53       1.27325      .   S
    O141   La7       2.42447      .   S
    O143   C55       1.27220      .   S
    O143   La13      2.42401  1_545   S
    O139   C51       1.27205      .   S
    O139   La9       2.42406  1_545   S
    O145   C57       1.27215      .   S
    O145   La11      2.42470      .   S
    C51    O135      1.27913      .   S
    C55    O131      1.27863  1_655   S
    C53    O137      1.27916      .   S
    C57    O133      1.27915  1_655   S
    O131   La15      2.43131      .   S
    O135   La3       2.43132      .   S
    O137   La5       2.43115      .   S
    O133   La1       2.43117      .   S
    O81    La13      2.47297      .   S
    O77    La9       2.47139      .   S
    O79    La11      2.47235      .   S
    O75    La7       2.47238      .   S
    La3    O127      2.45504      .   S
    La3    O97       2.42387  1_545   S
    La3    O105      2.43605  1_545   S
    La15   O123      2.47139      .   S
    La15   O93       2.42405  1_545   S
    La15   O101      2.43583  1_545   S
    La5    O129      2.47253      .   S
    La5    O95       2.42482      .   S
    La5    O103      2.43514      .   S
    La1    O125      2.47232      .   S
    La1    O91       2.42476      .   S
    La1    O99       2.43510      .   S
    La9    O85       2.43132      .   S
    La9    O115      2.48730  1_565   S
    La9    O109      2.43675      .   S
    La13   O89       2.43132      .   S
    La13   O119      2.48893  1_565   S
    La13   O113      2.43792      .   S
    La11   O87       2.43119      .   S
    La11   O121      2.48912      .   S
    La11   O111      2.43818      .   S
    La7    O83       2.43120      .   S
    La7    O117      2.48890      .   S
    La7    O107      2.43808      .   S
    O127   C47       1.31155      .   S
    O123   C43       1.29324      .   S
    O125   C45       1.27534      .   S
    O129   C49       1.29331      .   S
    O85    C30       1.27965      .   S
    O87    C24       1.27915  1_655   S
    O83    C28       1.27920      .   S
    O89    C26       1.27912  1_655   S
    C26    O93       1.27136      .   S
    C30    O97       1.27208      .   S
    C28    O95       1.27202      .   S
    C24    O91       1.27217      .   S
    C45    O117      1.27724      .   S
    C49    O121      1.27091      .   S
    C47    O119      1.27085      .   S
    C43    O115      1.27027      .   S
    O105   C38       1.27984      .   S
    O101   C34       1.28031      .   S
    O103   C36       1.28031      .   S
    O99    C32       1.28034      .   S
    O109   C34       1.27423      .   S
    O113   C38       1.27425      .   S
    O107   C32       1.27423      .   S
    O111   C36       1.27424      .   S
    C62    O158      1.27423      .   S
    C62    O150      1.28028      .   S
    C66    O42       1.27423      .   S
    C66    O154      1.28027      .   S
    C60    O156      1.27425      .   S
    C60    O148      1.28026      .   S
    C64    O40       1.27425      .   S
    C64    O152      1.28027      .   S
    O42    La6       2.43813      .   S
    O158   La2       2.43812      .   S
    O40    La4       2.43759      .   S
    O156   La0       2.43799      .   S
    O154   La12      2.43521      .   S
    O150   La8       2.43523      .   S
    O152   La14      2.43586  1_545   S
    O148   La10      2.43589  1_545   S
    O70    C19       1.27087      .   S
    O70    La0       2.48914  1_565   S
    O74    C23       1.27088      .   S
    O74    La4       2.48856  1_565   S
    O72    C21       1.27093      .   S
    O72    La6       2.48916      .   S
    O68    C17       1.27087      .   S
    O68    La2       2.48895      .   S
    C23    O82       1.29329      .   S
    C19    O78       1.29327      .   S
    C17    O76       1.29339      .   S
    C21    O80       1.29342      .   S
    O146   C58       1.27204      .   S
    O146   La12      2.42470      .   S
    O142   C54       1.27121      .   S
    O142   La8       2.42474      .   S
    O144   C56       1.27224      .   S
    O144   La14      2.42396  1_545   S
    O140   C52       1.27212      .   S
    O140   La10      2.42402  1_545   S
    C54    O138      1.27973      .   S
    C58    O134      1.27922  1_655   S
    C56    O132      1.27904  1_655   S
    C52    O136      1.27912      .   S
    O136   La4       2.43133      .   S
    O132   La0       2.43133      .   S
    O138   La6       2.43116      .   S
    O134   La2       2.43117      .   S
    O76    La8       2.47238      .   S
    O78    La10      2.47144      .   S
    O80    La12      2.47235      .   S
    O82    La14      2.47141      .   S
    La4    O128      2.47182      .   S
    La4    O98       2.42390  1_545   S
    La4    O106      2.43652  1_545   S
    La6    O130      2.47238      .   S
    La6    O96       2.42481      .   S
    La6    O104      2.43514      .   S
    La2    O126      2.47085      .   S
    La2    O92       2.42478      .   S
    La2    O100      2.43528      .   S
    La0    O124      2.47128      .   S
    La0    O94       2.42387  1_545   S
    La0    O102      2.43597  1_545   S
    La12   O88       2.43118      .   S
    La12   O122      2.48905      .   S
    La12   O112      2.43806      .   S
    La8    O84       2.43118      .   S
    La8    O118      2.48909      .   S
    La8    O108      2.43807      .   S
    La10   O86       2.43133      .   S
    La10   O116      2.48910  1_565   S
    La10   O110      2.43788      .   S
    La14   O90       2.43132      .   S
    La14   O120      2.48889  1_565   S
    La14   O114      2.43786      .   S
    O126   C46       1.29515      .   S
    O130   C50       1.29205      .   S
    O124   C44       1.29342      .   S
    O128   C48       1.29224      .   S
    O88    C25       1.27909  1_655   S
    O84    C29       1.27914      .   S
    O90    C27       1.27907  1_655   S
    O86    C31       1.27911      .   S
    C25    O92       1.27212      .   S
    C29    O96       1.27216      .   S
    C27    O94       1.27220      .   S
    C31    O98       1.27216      .   S
    C50    O122      1.27135      .   S
    C46    O118      1.27087      .   S
    C48    O120      1.27119      .   S
    C44    O116      1.27085      .   S
    O104   C37       1.28040      .   S
    O100   C33       1.28026      .   S
    O106   C39       1.28023      .   S
    O102   C35       1.28022      .   S
    O112   C37       1.27423      .   S
    O108   C33       1.27422      .   S
    O110   C35       1.27426      .   S
    O114   C39       1.27426      .   S
    O75    La1       2.79748      .   S
    O76    La2       2.79740      .   S
    O77    La15      2.79880  1_565   S
    O78    La0       2.79866  1_565   S
    O79    La5       2.79755      .   S
    O80    La6       2.79749      .   S
    O81    La3       2.79933  1_565   S
    O82    La4       2.79853  1_565   S
    O123   La9       2.79872  1_545   S
    O124   La10      2.79885  1_545   S
    O125   La7       2.79740      .   S
    O126   La8       2.79699      .   S
    O127   La13      2.79361  1_545   S
    O128   La14      2.79878  1_545   S
    O129   La11      2.79737      .   S
    O130   La12      2.79738      .   S
