# CIF file generated by openbabel 2.4.90, see http://openbabel.sf.net
data_I
_chemical_name_common ''
_cell_length_a 15.494
_cell_length_b 15.52
_cell_length_c 15.511
_cell_angle_alpha 74.375
_cell_angle_beta 74.601
_cell_angle_gamma 74.551
_space_group_name_H-M_alt 'P 1'
_space_group_name_Hall 'P 1'
loop_
    _symmetry_equiv_pos_as_xyz
    x,y,z
loop_
    _atom_site_label
    _atom_site_type_symbol
    _atom_site_fract_x
    _atom_site_fract_y
    _atom_site_fract_z
    _atom_site_occupancy
    Zr0     Zr   0.57368   0.00835   0.00832   1.000
    Zr1     Zr   0.00849   0.57355   0.00813   1.000
    Zr2     Zr   0.00876   0.00811   0.57352   1.000
    Zr3     Zr   0.99129   0.42648   0.99175   1.000
    Zr4     Zr   0.42628   0.99173   0.99144   1.000
    Zr5     Zr   0.99141   0.99192   0.42635   1.000
    Zr6     Zr   0.43888   0.98436   0.17189   1.000
    Zr7     Zr   0.17194   0.43840   0.98477   1.000
    Zr8     Zr   0.98466   0.17216   0.43912   1.000
    Zr9     Zr   0.01548   0.56098   0.82774   1.000
    Zr10    Zr   0.56095   0.82805   0.01544   1.000
    Zr11    Zr   0.82803   0.01546   0.56142   1.000
    Zr12    Zr   0.56114   0.01569   0.82786   1.000
    Zr13    Zr   0.82785   0.56162   0.01506   1.000
    Zr14    Zr   0.01545   0.82789   0.56076   1.000
    Zr15    Zr   0.98435   0.43907   0.17214   1.000
    Zr16    Zr   0.43895   0.17203   0.98436   1.000
    Zr17    Zr   0.17212   0.98461   0.43840   1.000
    Zr18    Zr   0.52197   0.99315   0.14109   1.000
    Zr19    Zr   0.38493   0.97800   0.12528   1.000
    Zr20    Zr   0.14123   0.52134   0.99357   1.000
    Zr21    Zr   0.12515   0.38466   0.97846   1.000
    Zr22    Zr   0.99400   0.14101   0.52205   1.000
    Zr23    Zr   0.97801   0.12581   0.38527   1.000
    Zr24    Zr   0.00638   0.47803   0.85880   1.000
    Zr25    Zr   0.02204   0.61478   0.87419   1.000
    Zr26    Zr   0.47787   0.85896   0.00656   1.000
    Zr27    Zr   0.61493   0.87454   0.02189   1.000
    Zr28    Zr   0.85867   0.00673   0.47842   1.000
    Zr29    Zr   0.87486   0.02170   0.61520   1.000
    Zr30    Zr   0.47806   0.00687   0.85860   1.000
    Zr31    Zr   0.61506   0.02206   0.87450   1.000
    Zr32    Zr   0.85856   0.47868   0.00626   1.000
    Zr33    Zr   0.87464   0.61534   0.02140   1.000
    Zr34    Zr   0.00628   0.85902   0.47778   1.000
    Zr35    Zr   0.02204   0.87423   0.61465   1.000
    Zr36    Zr   0.99337   0.52204   0.14100   1.000
    Zr37    Zr   0.97787   0.38523   0.12570   1.000
    Zr38    Zr   0.52204   0.14114   0.99320   1.000
    Zr39    Zr   0.38500   0.12551   0.97792   1.000
    Zr40    Zr   0.14151   0.99328   0.52145   1.000
    Zr41    Zr   0.12527   0.97839   0.38466   1.000
    O42     O    0.84321   0.52015   0.01066   1.000
    O43     O    0.92493   0.45258   0.99901   1.000
    O44     O    0.51941   0.84350   0.01100   1.000
    O45     O    0.45208   0.92534   0.99900   1.000
    O46     O    0.94157   0.59444   0.01477   1.000
    O47     O    0.00093   0.54779   0.07457   1.000
    O48     O    0.01526   0.59416   0.94116   1.000
    O49     O    0.07486   0.54744   0.00085   1.000
    O50     O    0.59430   0.94144   0.01511   1.000
    O51     O    0.54782   0.00075   0.07471   1.000
    O52     O    0.59437   0.01520   0.94141   1.000
    O53     O    0.54786   0.07474   0.00076   1.000
    O54     O    0.85125   0.58848   0.01823   1.000
    O55     O    0.58794   0.85129   0.01867   1.000
    O56     O    0.41190   0.98118   0.14858   1.000
    O57     O    0.40561   0.98487   0.05836   1.000
    O58     O    0.98111   0.41215   0.14892   1.000
    O59     O    0.98458   0.40585   0.05873   1.000
    O60     O    0.98886   0.48055   0.15657   1.000
    O61     O    0.48042   0.98876   0.15649   1.000
    O62     O    0.05834   0.98516   0.40551   1.000
    O63     O    0.14870   0.98150   0.41153   1.000
    O64     O    0.98471   0.05886   0.40581   1.000
    O65     O    0.98134   0.14898   0.41220   1.000
    O66     O    0.99884   0.92547   0.45207   1.000
    O67     O    0.92504   0.99933   0.45239   1.000
    O68     O    0.15681   0.98895   0.47993   1.000
    O69     O    0.98933   0.15658   0.48059   1.000
    O70     O    0.01087   0.84346   0.51927   1.000
    O71     O    0.84335   0.01110   0.51992   1.000
    O72     O    0.07513   0.00070   0.54748   1.000
    O73     O    0.00138   0.07456   0.54779   1.000
    O74     O    0.01875   0.85106   0.58771   1.000
    O75     O    0.85145   0.01858   0.58831   1.000
    O76     O    0.01540   0.94117   0.59409   1.000
    O77     O    0.94181   0.01490   0.59436   1.000
    O78     O    0.01093   0.51951   0.84327   1.000
    O79     O    0.01876   0.58788   0.85097   1.000
    O80     O    0.51960   0.01128   0.84323   1.000
    O81     O    0.58810   0.01888   0.85118   1.000
    O82     O    0.45217   0.99930   0.92502   1.000
    O83     O    0.99884   0.45226   0.92527   1.000
    O84     O    0.41197   0.14877   0.98114   1.000
    O85     O    0.40564   0.05862   0.98468   1.000
    O86     O    0.14855   0.41153   0.98162   1.000
    O87     O    0.05822   0.40557   0.98511   1.000
    O88     O    0.48049   0.15658   0.98878   1.000
    O89     O    0.15658   0.47987   0.98917   1.000
    O90     O    0.49998   0.00004   0.99988   1.000
    O91     O    0.99989   0.50001   0.99994   1.000
    O92     O    0.00008   0.00002   0.49994   1.000
    N93     N    0.49989   0.50004   0.99992   1.000
    O94     O    0.45984   0.36088   0.99185   1.000
    O95     O    0.36081   0.45964   0.99202   1.000
    O96     O    0.53999   0.63919   0.00797   1.000
    O97     O    0.63898   0.54041   0.00781   1.000
    N98     N    0.99996   0.50004   0.49992   1.000
    O99     O    0.00805   0.63907   0.53990   1.000
    O100    O    0.99194   0.36100   0.45996   1.000
    O101    O    0.00809   0.54008   0.63892   1.000
    O102    O    0.99180   0.46000   0.36094   1.000
    N103    N    0.50007   0.00003   0.49987   1.000
    O104    O    0.45991   0.99188   0.36074   1.000
    O105    O    0.36098   0.99200   0.45956   1.000
    O106    O    0.63916   0.00807   0.54021   1.000
    O107    O    0.54019   0.00818   0.63900   1.000
loop_
    _geom_bond_atom_site_label_1
    _geom_bond_atom_site_label_2
    _geom_bond_distance
    _geom_bond_site_symmetry_2
    _ccdc_geom_bond_type
    Zr32   O42       0.63952      .   S
    Zr13   O42       0.63952      .   S
    Zr32   O43       0.98756  1_554   S
    Zr3    O43       0.98756      .   S
    Zr26   O44       0.63949      .   S
    Zr10   O44       0.63949      .   S
    Zr26   O45       0.98765  1_554   S
    Zr4    O45       0.98765      .   S
    Zr1    O46       0.98651  1_455   S
    Zr33   O46       0.98651      .   S
    Zr1    O47       0.98708      .   S
    Zr36   O47       0.98708  1_655   S
    Zr1    O48       0.98661  1_554   S
    Zr25   O48       0.98661      .   S
    Zr1    O49       0.98758      .   S
    Zr20   O49       0.98758  1_556   S
    Zr0    O50       0.98672  1_545   S
    Zr27   O50       0.98672      .   S
    Zr0    O51       0.98761      .   S
    Zr18   O51       0.98761  1_565   S
    Zr0    O52       0.98651  1_554   S
    Zr31   O52       0.98651      .   S
    Zr0    O53       0.98783      .   S
    Zr38   O53       0.98783  1_556   S
    Zr13   O54       0.63921      .   S
    Zr33   O54       0.63921      .   S
    Zr10   O55       0.63925      .   S
    Zr27   O55       0.63925      .   S
    Zr19   O56       0.63919      .   S
    Zr6    O56       0.63919      .   S
    Zr19   O57       0.98663      .   S
    Zr4    O57       0.98663  1_556   S
    Zr37   O58       0.63924      .   S
    Zr15   O58       0.63924      .   S
    Zr37   O59       0.98677      .   S
    Zr3    O59       0.98677  1_556   S
    Zr36   O60       0.63953      .   S
    Zr15   O60       0.63953      .   S
    Zr18   O61       0.63954      .   S
    Zr6    O61       0.63954      .   S
    Zr41   O62       0.98652      .   S
    Zr5    O62       0.98652  1_655   S
    Zr41   O63       0.63898      .   S
    Zr17   O63       0.63898      .   S
    Zr23   O64       0.98663      .   S
    Zr5    O64       0.98663  1_565   S
    Zr23   O65       0.63929      .   S
    Zr8    O65       0.63929      .   S
    Zr5    O66       0.98765      .   S
    Zr34   O66       0.98765  1_455   S
    Zr5    O67       0.98752      .   S
    Zr28   O67       0.98752  1_545   S
    Zr17   O68       0.63981      .   S
    Zr40   O68       0.63981      .   S
    Zr8    O69       0.63950      .   S
    Zr22   O69       0.63950      .   S
    Zr34   O70       0.63952      .   S
    Zr14   O70       0.63952      .   S
    Zr28   O71       0.63958      .   S
    Zr11   O71       0.63958      .   S
    Zr40   O72       0.98759  1_565   S
    Zr2    O72       0.98759      .   S
    Zr22   O73       0.98773  1_655   S
    Zr2    O73       0.98773      .   S
    Zr14   O74       0.63929      .   S
    Zr35   O74       0.63929      .   S
    Zr11   O75       0.63918      .   S
    Zr29   O75       0.63918      .   S
    Zr2    O76       0.98673  1_545   S
    Zr35   O76       0.98673      .   S
    Zr2    O77       0.98672  1_455   S
    Zr29   O77       0.98672      .   S
    Zr9    O78       0.63950      .   S
    Zr24   O78       0.63950      .   S
    Zr9    O79       0.63926      .   S
    Zr25   O79       0.63926      .   S
    Zr12   O80       0.63951      .   S
    Zr30   O80       0.63951      .   S
    Zr12   O81       0.63921      .   S
    Zr31   O81       0.63921      .   S
    Zr30   O82       0.98820  1_545   S
    Zr4    O82       0.98820      .   S
    Zr24   O83       0.98771  1_455   S
    Zr3    O83       0.98771      .   S
    Zr39   O84       0.63925      .   S
    Zr16   O84       0.63925      .   S
    Zr39   O85       0.98657      .   S
    Zr4    O85       0.98657  1_565   S
    Zr21   O86       0.63918      .   S
    Zr7    O86       0.63918      .   S
    Zr21   O87       0.98656      .   S
    Zr3    O87       0.98656  1_655   S
    Zr16   O88       0.63945      .   S
    Zr38   O88       0.63945      .   S
    Zr7    O89       0.63953      .   S
    Zr20   O89       0.63953      .   S
    Zr0    O90       1.22663  1_554   S
    Zr4    O90       1.22663  1_565   S
    Zr1    O91       1.22657  1_454   S
    Zr3    O91       1.22657      .   S
    Zr2    O92       1.22651      .   S
    Zr5    O92       1.22651  1_665   S
    N93    O94       2.44252      .   S
    Zr16   O94       3.06892      .   S
    N93    O95       2.43987      .   S
    Zr7    O95       3.06496      .   S
    N93    O96       2.44279  1_556   S
    Zr10   O96       3.06925      .   S
    N93    O97       2.43974  1_556   S
    Zr13   O97       3.06482      .   S
    N98    O99       2.44180  1_655   S
    Zr14   O99       3.06827      .   S
    N98    O100      2.44153      .   S
    Zr8    O100      3.06795      .   S
    N98    O101      2.44087  1_655   S
    Zr9    O101      3.06691      .   S
    N98    O102      2.44093      .   S
    Zr15   O102      3.06701      .   S
    N103   O104      2.44177  1_545   S
    Zr6    O104      3.06791      .   S
    N103   O105      2.43955  1_545   S
    Zr17   O105      3.06476      .   S
    N103   O106      2.43987      .   S
    Zr11   O106      3.06509      .   S
    N103   O107      2.44147      .   S
    Zr12   O107      3.06753      .   S
