# CIF file generated by openbabel 2.4.90, see http://openbabel.sf.net
data_I
_chemical_name_common ''
_cell_length_a 18.3
_cell_length_b 17.826
_cell_length_c 15.734
_cell_angle_alpha 90
_cell_angle_beta 90
_cell_angle_gamma 90
_space_group_name_H-M_alt 'P 1'
_space_group_name_Hall 'P 1'
loop_
    _symmetry_equiv_pos_as_xyz
    x,y,z
loop_
    _atom_site_label
    _atom_site_type_symbol
    _atom_site_fract_x
    _atom_site_fract_y
    _atom_site_fract_z
    _atom_site_occupancy
    Zr0     Zr   0.00000   0.25001   0.04646   1.000
    Zr1     Zr   0.50000   0.25001   0.04646   1.000
    Zr2     Zr   0.00000   0.75002   0.45353   1.000
    Zr3     Zr   0.50000   0.75002   0.45353   1.000
    Zr4     Zr   1.00000   0.75002   0.95352   1.000
    Zr5     Zr   0.50000   0.75002   0.95352   1.000
    Zr6     Zr   1.00000   0.25001   0.54645   1.000
    Zr7     Zr   0.50000   0.25001   0.54645   1.000
    N8      N    0.72756   0.99991   0.74997   1.000
    O9      O    0.62813   0.10669   0.86955   1.000
    O10     O    0.62813   0.89323   0.63041   1.000
    O11     O    0.84310   0.89207   0.82854   1.000
    O12     O    0.84310   0.10786   0.67142   1.000
    N13     N    0.27244   0.50001   0.74997   1.000
    O14     O    0.15690   0.60791   0.82854   1.000
    O15     O    0.37187   0.60675   0.63039   1.000
    O16     O    0.15690   0.39211   0.67142   1.000
    O17     O    0.37187   0.39328   0.86955   1.000
    N18     N    0.77244   0.50001   0.74998   1.000
    O19     O    0.87187   0.39328   0.86956   1.000
    O20     O    0.65690   0.60791   0.82854   1.000
    O21     O    0.87187   0.60675   0.63042   1.000
    O22     O    0.65690   0.39211   0.67140   1.000
    N23     N    0.77244   0.99991   0.24999   1.000
    O24     O    0.65691   0.10786   0.17143   1.000
    O25     O    0.87187   0.89323   0.13042   1.000
    O26     O    0.65691   0.89207   0.32855   1.000
    O27     O    0.87187   0.10669   0.36956   1.000
    N28     N    0.72757   0.50001   0.24999   1.000
    O29     O    0.62813   0.39327   0.36956   1.000
    O30     O    0.62813   0.60675   0.13042   1.000
    O31     O    0.84310   0.39211   0.17143   1.000
    O32     O    0.84310   0.60791   0.32855   1.000
    N33     N    0.22756   0.50001   0.24998   1.000
    O34     O    0.34310   0.39211   0.17142   1.000
    O35     O    0.12813   0.39328   0.36956   1.000
    O36     O    0.34310   0.60791   0.32837   1.000
    O37     O    0.12813   0.60675   0.13041   1.000
    N38     N    0.27244   0.99991   0.24999   1.000
    O39     O    0.37187   0.10669   0.36956   1.000
    O40     O    0.15690   0.10786   0.17143   1.000
    O41     O    0.15690   0.89207   0.32855   1.000
    O42     O    0.37187   0.89323   0.13042   1.000
    N43     N    0.22756   0.99991   0.74997   1.000
    O44     O    0.34310   0.89207   0.82854   1.000
    O45     O    0.12813   0.10669   0.86955   1.000
    O46     O    0.12813   0.89323   0.63041   1.000
    O47     O    0.34310   0.10786   0.67142   1.000
loop_
    _geom_bond_atom_site_label_1
    _geom_bond_atom_site_label_2
    _geom_bond_distance
    _geom_bond_site_symmetry_2
    _ccdc_geom_bond_type
    N8     O9        3.23642  1_565   S
    Zr1    O9        4.44657  1_554   S
    N8     O10       3.23519      .   S
    Zr3    O10       4.44526      .   S
    N8     O11       3.11351      .   S
    Zr4    O11       4.30389      .   S
    N8     O12       3.11449  1_565   S
    Zr6    O12       4.30480      .   S
    N13    O14       3.11414      .   S
    Zr4    O14       4.30451  1_655   S
    N13    O15       3.23591      .   S
    Zr3    O15       4.44566      .   S
    N13    O16       3.11402      .   S
    Zr6    O16       4.30439  1_655   S
    N13    O17       3.23598      .   S
    Zr1    O17       4.44617  1_554   S
    N18    O19       3.23590      .   S
    Zr0    O19       4.44607  1_454   S
    N18    O20       3.11410      .   S
    Zr5    O20       4.30446      .   S
    N18    O21       3.23581      .   S
    Zr2    O21       4.44588  1_455   S
    N18    O22       3.11419      .   S
    Zr7    O22       4.30430      .   S
    N23    O24       3.11455  1_565   S
    Zr1    O24       4.30487      .   S
    N23    O25       3.23529      .   S
    Zr4    O25       4.44542  1_556   S
    N23    O26       3.11350      .   S
    Zr3    O26       4.30389      .   S
    N23    O27       3.23630  1_565   S
    Zr6    O27       4.44634      .   S
    N28    O29       3.23587      .   S
    Zr7    O29       4.44596      .   S
    N28    O30       3.23586      .   S
    Zr5    O30       4.44604  1_556   S
    N28    O31       3.11406      .   S
    Zr0    O31       4.30439  1_455   S
    N28    O32       3.11408      .   S
    Zr2    O32       4.30445  1_455   S
    N33    O34       3.11404      .   S
    Zr1    O34       4.30438      .   S
    N33    O35       3.23592      .   S
    Zr6    O35       4.44601  1_655   S
    N33    O36       3.11305      .   S
    Zr3    O36       4.30576      .   S
    N33    O37       3.23583      .   S
    Zr4    O37       4.44597  1_656   S
    N38    O39       3.23632  1_565   S
    Zr7    O39       4.44637      .   S
    N38    O40       3.11455  1_565   S
    Zr0    O40       4.30486      .   S
    N38    O41       3.11348      .   S
    Zr2    O41       4.30389      .   S
    N38    O42       3.23529      .   S
    Zr5    O42       4.44545  1_556   S
    N43    O44       3.11352      .   S
    Zr5    O44       4.30393      .   S
    N43    O45       3.23642  1_565   S
    Zr0    O45       4.44656  1_554   S
    N43    O46       3.23519      .   S
    Zr2    O46       4.44525      .   S
    N43    O47       3.11450  1_565   S
    Zr7    O47       4.30484      .   S
