# CIF file generated by openbabel 2.4.90, see http://openbabel.sf.net
data_I
_chemical_name_common ''
_cell_length_a 19.797
_cell_length_b 19.8
_cell_length_c 15.418
_cell_angle_alpha 74.151
_cell_angle_beta 74.164
_cell_angle_gamma 82.483
_space_group_name_H-M_alt 'P 1'
_space_group_name_Hall 'P 1'
loop_
    _symmetry_equiv_pos_as_xyz
    x,y,z
loop_
    _atom_site_label
    _atom_site_type_symbol
    _atom_site_fract_x
    _atom_site_fract_y
    _atom_site_fract_z
    _atom_site_occupancy
    O0      O    0.10586   0.41950   0.11814   1.000
    O1      O    0.10586   0.91949   0.11814   1.000
    O2      O    0.60586   0.41950   0.11814   1.000
    O3      O    0.60587   0.91949   0.11814   1.000
    O4      O    0.57398   0.75682   0.88528   1.000
    O5      O    0.15995   0.49375   0.87720   1.000
    O6      O    0.15996   0.99375   0.87728   1.000
    O7      O    0.65996   0.49375   0.87728   1.000
    O8      O    0.42603   0.24317   0.11473   1.000
    O9      O    0.42604   0.74317   0.11473   1.000
    O10     O    0.92604   0.24317   0.11473   1.000
    O11     O    0.92604   0.74317   0.11473   1.000
    O12     O    0.34006   0.00624   0.12272   1.000
    O13     O    0.34006   0.50624   0.12272   1.000
    O14     O    0.84006   0.00625   0.12272   1.000
    O15     O    0.84006   0.50624   0.12272   1.000
    O16     O    0.12704   0.49842   0.21167   1.000
    O17     O    0.12704   0.99841   0.21160   1.000
    O18     O    0.62704   0.49842   0.21160   1.000
    O19     O    0.62704   0.99841   0.21160   1.000
    O20     O    0.40457   0.10055   0.13711   1.000
    O21     O    0.40457   0.60055   0.13711   1.000
    O22     O    0.90457   0.10055   0.13711   1.000
    O23     O    0.90457   0.60055   0.13711   1.000
    O24     O    0.49576   0.33880   0.11938   1.000
    O25     O    0.49577   0.83880   0.11938   1.000
    O26     O    0.99577   0.33880   0.11930   1.000
    O27     O    0.99577   0.83880   0.11938   1.000
    O28     O    0.36698   0.49716   0.27577   1.000
    O29     O    0.36698   0.99716   0.27577   1.000
    O30     O    0.86698   0.49716   0.27577   1.000
    O31     O    0.86698   0.99716   0.27577   1.000
    O32     O    0.22745   0.42506   0.13307   1.000
    O33     O    0.22746   0.92505   0.13307   1.000
    O34     O    0.72746   0.42506   0.13307   1.000
    O35     O    0.72746   0.92505   0.13307   1.000
    O36     O    0.10055   0.40456   0.63720   1.000
    O37     O    0.10056   0.90456   0.63720   1.000
    O38     O    0.60056   0.40456   0.63720   1.000
    O39     O    0.60056   0.90456   0.63720   1.000
    O40     O    0.33882   0.49577   0.61932   1.000
    O41     O    0.17011   0.03148   0.03990   1.000
    O42     O    0.17011   0.53148   0.03990   1.000
    O43     O    0.67011   0.03148   0.03990   1.000
    O44     O    0.67011   0.53148   0.03990   1.000
    O45     O    0.46552   0.48061   0.13850   1.000
    O46     O    0.46553   0.98061   0.13850   1.000
    O47     O    0.96553   0.48061   0.13850   1.000
    O48     O    0.96553   0.98061   0.13850   1.000
    O49     O    0.36810   0.36267   0.11164   1.000
    O50     O    0.36811   0.86266   0.11164   1.000
    O51     O    0.86811   0.36267   0.11164   1.000
    O52     O    0.86811   0.86266   0.11164   1.000
    O53     O    0.46128   0.34314   0.97175   1.000
    O54     O    0.46128   0.84314   0.97175   1.000
    O55     O    0.96128   0.34314   0.97175   1.000
    O56     O    0.96129   0.84314   0.97175   1.000
    O57     O    0.08050   0.39412   0.38190   1.000
    O58     O    0.08050   0.89412   0.38190   1.000
    O59     O    0.58050   0.39412   0.38190   1.000
    O60     O    0.58050   0.89412   0.38190   1.000
    O61     O    0.25681   0.07393   0.38540   1.000
    O62     O    0.25681   0.57393   0.38540   1.000
    O63     O    0.75681   0.07393   0.38540   1.000
    O64     O    0.75682   0.57393   0.38540   1.000
    O65     O    0.49377   0.15995   0.37720   1.000
    O66     O    0.49377   0.65994   0.37720   1.000
    O67     O    0.99377   0.15995   0.37720   1.000
    O68     O    0.99377   0.65994   0.37720   1.000
    O69     O    0.00153   0.37298   0.28839   1.000
    O70     O    0.00153   0.87298   0.28839   1.000
    O71     O    0.50153   0.37298   0.28839   1.000
    O72     O    0.50153   0.87298   0.28839   1.000
    O73     O    0.39946   0.09544   0.36281   1.000
    O74     O    0.39946   0.59543   0.36281   1.000
    O75     O    0.89946   0.09544   0.36281   1.000
    O76     O    0.89946   0.59543   0.36281   1.000
    O77     O    0.16119   0.00423   0.38068   1.000
    O78     O    0.16119   0.50423   0.38068   1.000
    O79     O    0.66119   0.00423   0.38068   1.000
    O80     O    0.66120   0.50423   0.38068   1.000
    O81     O    0.00288   0.13297   0.22410   1.000
    O82     O    0.00288   0.63296   0.22410   1.000
    O83     O    0.50288   0.13297   0.22410   1.000
    O84     O    0.50288   0.63296   0.22410   1.000
    O85     O    0.07493   0.27256   0.36693   1.000
    O86     O    0.07493   0.77255   0.36693   1.000
    O87     O    0.57493   0.27256   0.36693   1.000
    O88     O    0.57494   0.77255   0.36693   1.000
    O89     O    0.46853   0.32987   0.46015   1.000
    O90     O    0.46853   0.82987   0.46015   1.000
    O91     O    0.96853   0.32987   0.46015   1.000
    O92     O    0.96853   0.82987   0.46015   1.000
    O93     O    0.01938   0.03447   0.36153   1.000
    O94     O    0.01939   0.53446   0.36153   1.000
    O95     O    0.51939   0.03447   0.36153   1.000
    O96     O    0.51939   0.53446   0.36153   1.000
    O97     O    0.13733   0.13190   0.38830   1.000
    O98     O    0.13733   0.63190   0.38830   1.000
    O99     O    0.63733   0.13190   0.38830   1.000
    O100    O    0.63733   0.63190   0.38830   1.000
    O101    O    0.15674   0.03876   0.52832   1.000
    O102    O    0.15674   0.53875   0.52832   1.000
    O103    O    0.65675   0.03876   0.52832   1.000
    O104    O    0.65675   0.53875   0.52832   1.000
    O105    O    0.39415   0.08050   0.88186   1.000
    O106    O    0.39415   0.58049   0.88186   1.000
    O107    O    0.89415   0.08050   0.88186   1.000
    O108    O    0.89416   0.58049   0.88186   1.000
    O109    O    0.07398   0.25683   0.88528   1.000
    O110    O    0.07398   0.75682   0.88528   1.000
    O111    O    0.57398   0.25683   0.88528   1.000
    O112    O    0.65996   0.99375   0.87720   1.000
    O113    O    0.37297   0.00158   0.78834   1.000
    O114    O    0.37298   0.50157   0.78834   1.000
    O115    O    0.87297   0.00158   0.78834   1.000
    O116    O    0.87298   0.50157   0.78834   1.000
    O117    O    0.09544   0.39944   0.86200   1.000
    O118    O    0.09544   0.89944   0.86200   1.000
    O119    O    0.59545   0.39944   0.86200   1.000
    O120    O    0.59545   0.89944   0.86200   1.000
    O121    O    0.00424   0.16120   0.88063   1.000
    O122    O    0.00425   0.66119   0.88063   1.000
    O123    O    0.50425   0.16120   0.88063   1.000
    O124    O    0.50425   0.66119   0.88063   1.000
    O125    O    0.13303   0.00284   0.72424   1.000
    O126    O    0.13303   0.50283   0.72424   1.000
    O127    O    0.63303   0.00284   0.72424   1.000
    O128    O    0.63304   0.50283   0.72424   1.000
    O129    O    0.27256   0.07494   0.86694   1.000
    O130    O    0.27256   0.57494   0.86694   1.000
    O131    O    0.77256   0.07494   0.86694   1.000
    O132    O    0.77256   0.57494   0.86694   1.000
    O133    O    0.32990   0.46851   0.96011   1.000
    O134    O    0.32990   0.96851   0.96011   1.000
    O135    O    0.82990   0.46852   0.96011   1.000
    O136    O    0.82991   0.96851   0.96011   1.000
    O137    O    0.03449   0.01938   0.86150   1.000
    O138    O    0.03449   0.51938   0.86150   1.000
    O139    O    0.53449   0.01938   0.86150   1.000
    O140    O    0.53449   0.51938   0.86150   1.000
    O141    O    0.13190   0.13733   0.88837   1.000
    O142    O    0.13191   0.63732   0.88837   1.000
    O143    O    0.63191   0.13733   0.88837   1.000
    O144    O    0.63191   0.63732   0.88837   1.000
    O145    O    0.03873   0.15685   0.02826   1.000
    O146    O    0.03873   0.65685   0.02826   1.000
    O147    O    0.53873   0.15685   0.02826   1.000
    O148    O    0.53873   0.65685   0.02826   1.000
    O149    O    0.41951   0.10587   0.61811   1.000
    O150    O    0.41951   0.60587   0.61811   1.000
    O151    O    0.91951   0.10587   0.61811   1.000
    O152    O    0.91952   0.60587   0.61811   1.000
    O153    O    0.24320   0.42606   0.61461   1.000
    O154    O    0.24320   0.92606   0.61460   1.000
    O155    O    0.74320   0.42606   0.61460   1.000
    O156    O    0.74321   0.92606   0.61461   1.000
    O157    O    0.00624   0.34005   0.62280   1.000
    O158    O    0.00625   0.84004   0.62280   1.000
    O159    O    0.50625   0.34005   0.62280   1.000
    O160    O    0.50625   0.84005   0.62280   1.000
    O161    O    0.49848   0.12701   0.71162   1.000
    O162    O    0.49848   0.62701   0.71162   1.000
    O163    O    0.99848   0.12701   0.71162   1.000
    O164    O    0.99849   0.62701   0.71162   1.000
    O165    O    0.33882   0.99576   0.61930   1.000
    O166    O    0.83882   0.49577   0.61930   1.000
    O167    O    0.83883   0.99576   0.61932   1.000
    O168    O    0.49713   0.36703   0.77582   1.000
    O169    O    0.49714   0.86702   0.77582   1.000
    O170    O    0.99714   0.36703   0.77582   1.000
    O171    O    0.99714   0.86702   0.77582   1.000
    O172    O    0.42508   0.22744   0.63300   1.000
    O173    O    0.42508   0.72743   0.63300   1.000
    O174    O    0.92508   0.22744   0.63300   1.000
    O175    O    0.92508   0.72743   0.63300   1.000
    O176    O    0.03148   0.17013   0.53986   1.000
    O177    O    0.03148   0.67012   0.53986   1.000
    O178    O    0.53148   0.17013   0.53986   1.000
    O179    O    0.53149   0.67012   0.53986   1.000
    O180    O    0.48063   0.46553   0.63848   1.000
    O181    O    0.48063   0.96552   0.63848   1.000
    O182    O    0.98063   0.46553   0.63848   1.000
    O183    O    0.98063   0.96552   0.63848   1.000
    O184    O    0.36268   0.36810   0.61168   1.000
    O185    O    0.36269   0.86809   0.61168   1.000
    O186    O    0.86269   0.36810   0.61168   1.000
    O187    O    0.86269   0.86809   0.61168   1.000
    O188    O    0.34327   0.46124   0.47169   1.000
    O189    O    0.34327   0.96123   0.47169   1.000
    O190    O    0.84327   0.46124   0.47169   1.000
    O191    O    0.84327   0.96123   0.47169   1.000
