# CIF file generated by openbabel 2.4.90, see http://openbabel.sf.net
data_I
_chemical_name_common ''
_cell_length_a 16.334
_cell_length_b 16.343
_cell_length_c 16.344
_cell_angle_alpha 92.276
_cell_angle_beta 92.425
_cell_angle_gamma 92.394
_space_group_name_H-M_alt 'P 1'
_space_group_name_Hall 'P 1'
loop_
    _symmetry_equiv_pos_as_xyz
    x,y,z
loop_
    _atom_site_label
    _atom_site_type_symbol
    _atom_site_fract_x
    _atom_site_fract_y
    _atom_site_fract_z
    _atom_site_occupancy
    In0     In   0.40931   0.74157   0.15805   1.000
    In1     In   0.15671   0.40826   0.74336   1.000
    In2     In   0.84296   0.25627   0.59174   1.000
    In3     In   0.25769   0.58938   0.84382   1.000
    In4     In   0.59061   0.84222   0.25823   1.000
    In5     In   0.66585   0.33225   0.50084   1.000
    In6     In   0.50007   0.66555   0.33478   1.000
    In7     In   0.33374   0.49909   0.66758   1.000
    In8     In   0.74213   0.15601   0.41064   1.000
    C9      C    0.54999   0.18521   0.43219   1.000
    C10     C    0.93535   0.18502   0.43440   1.000
    C11     C    0.67387   0.31949   0.31436   1.000
    C12     C    0.68619   0.67763   0.32624   1.000
    C13     C    0.43209   0.54960   0.18810   1.000
    C14     C    0.43190   0.93407   0.18522   1.000
    C15     C    0.31383   0.67345   0.32200   1.000
    C16     C    0.18567   0.43105   0.55175   1.000
    O17     O    0.68098   0.75034   0.30209   1.000
    O18     O    0.75149   0.24651   0.50145   1.000
    O19     O    0.49911   0.75224   0.24990   1.000
    O20     O    0.24772   0.49898   0.75293   1.000
    C21     C    0.18520   0.43159   0.93610   1.000
    C22     C    0.32095   0.31304   0.67396   1.000
    C23     C    0.81433   0.44773   0.56890   1.000
    C24     C    0.81487   0.06358   0.56838   1.000
    C25     C    0.67817   0.32604   0.68660   1.000
    C26     C    0.44981   0.56754   0.81457   1.000
    C27     C    0.06446   0.56556   0.81497   1.000
    C28     C    0.32612   0.68564   0.68050   1.000
    C29     C    0.56921   0.81212   0.45058   1.000
    C30     C    0.56761   0.81392   0.06587   1.000
    O31     O    0.55586   0.26074   0.45875   1.000
    O32     O    0.60812   0.13543   0.43032   1.000
    O33     O    0.93720   0.21869   0.50669   1.000
    O34     O    0.87267   0.17399   0.38482   1.000
    O35     O    0.66669   0.37167   0.37500   1.000
    O36     O    0.69772   0.24665   0.31940   1.000
    O37     O    0.45824   0.55535   0.26391   1.000
    O38     O    0.43029   0.60794   0.13858   1.000
    O39     O    0.50399   0.93515   0.21932   1.000
    O40     O    0.38187   0.87175   0.17350   1.000
    O41     O    0.37457   0.66648   0.37487   1.000
    O42     O    0.31897   0.69724   0.24954   1.000
    O43     O    0.26103   0.45833   0.55799   1.000
    O44     O    0.13580   0.42770   0.60973   1.000
    O45     O    0.21920   0.50371   0.93742   1.000
    O46     O    0.17394   0.38164   0.87383   1.000
    O47     O    0.37365   0.37357   0.66687   1.000
    O48     O    0.24831   0.31844   0.69811   1.000
    O49     O    0.73897   0.44153   0.54166   1.000
    O50     O    0.86418   0.38970   0.57238   1.000
    O51     O    0.78087   0.06242   0.49626   1.000
    O52     O    0.82617   0.12580   0.61841   1.000
    O53     O    0.62539   0.33331   0.62609   1.000
    O54     O    0.75075   0.30182   0.68106   1.000
    O55     O    0.44391   0.54084   0.73908   1.000
    O56     O    0.39171   0.56952   0.86435   1.000
    O57     O    0.06264   0.49332   0.78128   1.000
    O58     O    0.12708   0.61522   0.82600   1.000
    O59     O    0.33326   0.62490   0.62831   1.000
    O60     O    0.30226   0.68063   0.75333   1.000
    O61     O    0.54208   0.73671   0.44476   1.000
    O62     O    0.57259   0.86167   0.39228   1.000
    O63     O    0.49573   0.77932   0.06472   1.000
    O64     O    0.61767   0.82563   0.12810   1.000
    O65     O    0.62543   0.62524   0.33343   1.000
    Ts66    Ts   0.37641   0.73882   0.12660   1.000
    Ts67    Ts   0.12544   0.37521   0.74107   1.000
    Ts68    Ts   0.87425   0.25862   0.62480   1.000
    Ts69    Ts   0.25982   0.62211   0.87524   1.000
    Ts70    Ts   0.62310   0.87398   0.26024   1.000
    Ts71    Ts   0.74003   0.12470   0.37781   1.000
    Og72    Og   0.52224   0.17494   0.42239   1.000
    Og73    Og   0.96179   0.17536   0.42470   1.000
    Og74    Og   0.66636   0.32895   0.28663   1.000
    Og75    Og   0.71394   0.66834   0.33393   1.000
    Og76    Og   0.42244   0.52189   0.17768   1.000
    Og77    Og   0.42241   0.96064   0.17558   1.000
    Og78    Og   0.28607   0.66580   0.33143   1.000
    Og79    Og   0.17541   0.42153   0.52393   1.000
    Og80    Og   0.17550   0.42208   0.96260   1.000
    Og81    Og   0.33011   0.28528   0.66624   1.000
    Og82    Og   0.82459   0.47554   0.57841   1.000
    Og83    Og   0.82455   0.03705   0.57788   1.000
    Og84    Og   0.66907   0.33374   0.71438   1.000
    Og85    Og   0.47756   0.57734   0.82483   1.000
    Og86    Og   0.03801   0.57526   0.82463   1.000
    Og87    Og   0.33367   0.71335   0.67105   1.000
    Og88    Og   0.57870   0.82254   0.47836   1.000
    Og89    Og   0.57706   0.82369   0.03935   1.000
loop_
    _geom_bond_atom_site_label_1
    _geom_bond_atom_site_label_2
    _geom_bond_distance
    _geom_bond_site_symmetry_2
    _ccdc_geom_bond_type
    O63    C30       1.28079      .   S
    C30    O64       1.28095      .   S
    O64    In4       2.19912      .   S
    O38    C13       1.27540      .   S
    In0    O40       2.19944      .   S
    O40    C14       1.28206      .   S
    C14    O39       1.28037      .   S
    C13    O37       1.29192      .   S
    O42    C15       1.26613      .   S
    O19    In4       2.04898      .   S
    O19    In6       2.02197      .   S
    O37    In6       2.17171      .   S
    O17    C12       1.27197      .   S
    C11    O36       1.27261      .   S
    C11    O35       1.29399      .   S
    C15    O41       1.29947      .   S
    C12    O65       1.29569      .   S
    In6    O61       2.17199      .   S
    O34    In8       2.20102      .   S
    O34    C10       1.28064      .   S
    O62    C29       1.27620      .   S
    In8    O18       2.04961      .   S
    O32    C9        1.27653      .   S
    C9     O31       1.29043      .   S
    C10    O33       1.28207      .   S
    O61    C29       1.29072      .   S
    O31    In5       2.17330      .   S
    O51    C24       1.28066      .   S
    In5    O18       2.02106      .   S
    In5    O49       2.17278      .   S
    O49    C23       1.28969      .   S
    C16    O43       1.29011      .   S
    C16    O44       1.27677      .   S
    O43    In7       2.17291      .   S
    C24    O52       1.28147      .   S
    C23    O50       1.27691      .   S
    In2    O52       2.20151      .   S
    O53    C25       1.29652      .   S
    O59    C28       1.29509      .   S
    O47    C22       1.29605      .   S
    In7    O55       2.17380      .   S
    In7    O20       2.02136      .   S
    C22    O48       1.27163      .   S
    C28    O60       1.27271      .   S
    O54    C25       1.27125      .   S
    O55    C26       1.29058      .   S
    In1    O46       2.20200      .   S
    O20    In3       2.04967      .   S
    O57    C27       1.28142      .   S
    C26    O56       1.27654      .   S
    C27    O58       1.28095      .   S
    O58    In3       2.20163      .   S
    O46    C21       1.28127      .   S
    C21    O45       1.28083      .   S
    O32    In8       2.23932      .   S
    O33    In2       2.20697      .   S
    O35    In5       2.17997      .   S
    O36    In8       2.26225      .   S
    O38    In0       2.23714      .   S
    O39    In4       2.21198      .   S
    O41    In6       2.17884      .   S
    O42    In0       2.26308      .   S
    O44    In1       2.23351      .   S
    O45    In3       2.20763      .   S
    O47    In7       2.17794      .   S
    O48    In1       2.26524      .   S
    O50    In2       2.23084      .   S
    O51    In8       2.20782      .   S
    O53    In5       2.17718      .   S
    O54    In2       2.26878      .   S
    O56    In3       2.23962      .   S
    O57    In1       2.20629      .   S
    O59    In7       2.17846      .   S
    O60    In3       2.26204      .   S
    O62    In4       2.23491      .   S
    O63    In0       2.21003      .   S
    O65    In6       2.17777      .   S
    O17    In4       2.26470      .   S
    O18    In2       2.05189      .   S
    O19    In0       2.05107      .   S
    O20    In1       2.05190      .   S
    In0    Ts66      0.72642      .   S
    In1    Ts67      0.72642      .   S
    In2    Ts68      0.72649      .   S
    In3    Ts69      0.72539      .   S
    In4    Ts70      0.72553      .   S
    In8    Ts71      0.72539      .   S
    C9     Og72      0.49454      .   S
    C10    Og73      0.49604      .   S
    C11    Og74      0.49677      .   S
    C12    Og75      0.49679      .   S
    C13    Og76      0.49455      .   S
    C14    Og77      0.49645      .   S
    C15    Og78      0.49763      .   S
    C16    Og79      0.49475      .   S
    C21    Og80      0.49588      .   S
    C22    Og81      0.49684      .   S
    C23    Og82      0.49467      .   S
    C24    Og83      0.49607      .   S
    C25    Og84      0.49684      .   S
    C26    Og85      0.49455      .   S
    C27    Og86      0.49615      .   S
    C28    Og87      0.49675      .   S
    C29    Og88      0.49479      .   S
    C30    Og89      0.49634      .   S
