# CIF file generated by openbabel 2.4.90, see http://openbabel.sf.net
data_I
_chemical_name_common ''
_cell_length_a 7.3995
_cell_length_b 12.889
_cell_length_c 20.85
_cell_angle_alpha 90
_cell_angle_beta 90.001
_cell_angle_gamma 90.056
_space_group_name_H-M_alt 'P 1'
_space_group_name_Hall 'P 1'
loop_
    _symmetry_equiv_pos_as_xyz
    x,y,z
loop_
    _atom_site_label
    _atom_site_type_symbol
    _atom_site_fract_x
    _atom_site_fract_y
    _atom_site_fract_z
    _atom_site_occupancy
    Cu0     Cu   0.24170   0.66203   0.75001   1.000
    Cu1     Cu   0.74164   0.83942   0.75001   1.000
    Cu2     Cu   0.75832   0.33798   0.25002   1.000
    Cu3     Cu   0.25824   0.16068   0.25002   1.000
