# CIF file generated by openbabel 2.4.90, see http://openbabel.sf.net
data_I
_chemical_name_common ''
_cell_length_a 15.885
_cell_length_b 18.338
_cell_length_c 19.602
_cell_angle_alpha 92.926
_cell_angle_beta 114.074
_cell_angle_gamma 82.713
_space_group_name_H-M_alt 'P 1'
_space_group_name_Hall 'P 1'
loop_
    _symmetry_equiv_pos_as_xyz
    x,y,z
loop_
    _atom_site_label
    _atom_site_type_symbol
    _atom_site_fract_x
    _atom_site_fract_y
    _atom_site_fract_z
    _atom_site_occupancy
    C0      C    0.09906   0.39461   0.37126   1.000
    C1      C    0.09906   0.39461   0.87125   1.000
    C2      C    0.09906   0.89460   0.37126   1.000
    N3      N    0.25975   0.12039   0.12292   1.000
    N4      N    0.25975   0.12040   0.62291   1.000
    N5      N    0.25975   0.62038   0.12292   1.000
    N6      N    0.25975   0.62038   0.62291   1.000
    N7      N    0.75974   0.12040   0.12292   1.000
    C8      C    0.40102   0.10534   0.12873   1.000
    C9      C    0.40103   0.10534   0.62872   1.000
    C10     C    0.40102   0.60533   0.12873   1.000
    C11     C    0.40103   0.60533   0.62872   1.000
    C12     C    0.90101   0.10534   0.12873   1.000
    C13     C    0.90101   0.10534   0.62871   1.000
    C14     C    0.90101   0.60533   0.12873   1.000
    C15     C    0.90102   0.60533   0.62871   1.000
    C16     C    0.22702   0.39475   0.12859   1.000
    C17     C    0.22702   0.39475   0.62858   1.000
    C18     C    0.22702   0.89474   0.12859   1.000
    C19     C    0.22702   0.89474   0.62858   1.000
    C20     C    0.72701   0.39475   0.12859   1.000
    C21     C    0.72702   0.39475   0.62858   1.000
    C22     C    0.72701   0.89474   0.12859   1.000
    C23     C    0.72702   0.89474   0.62858   1.000
    C24     C    0.09907   0.89460   0.87125   1.000
    C25     C    0.59905   0.39461   0.37126   1.000
    C26     C    0.59905   0.39461   0.87125   1.000
    C27     C    0.59905   0.89460   0.37126   1.000
    C28     C    0.59906   0.89460   0.87125   1.000
    C29     C    0.27306   0.10520   0.37140   1.000
    C30     C    0.27306   0.10520   0.87139   1.000
    C31     C    0.27306   0.60519   0.37140   1.000
    C32     C    0.27307   0.60519   0.87139   1.000
    C33     C    0.77306   0.10521   0.37140   1.000
    C34     C    0.77306   0.10520   0.87138   1.000
    C35     C    0.77306   0.60519   0.37140   1.000
    C36     C    0.77306   0.60519   0.87138   1.000
    N37     N    0.30977   0.16461   0.17436   1.000
    N38     N    0.30977   0.16461   0.67435   1.000
    N39     N    0.30977   0.66460   0.17436   1.000
    N40     N    0.30977   0.66460   0.67435   1.000
    N41     N    0.80976   0.16462   0.17436   1.000
    N42     N    0.80976   0.16462   0.67435   1.000
    N43     N    0.80976   0.66460   0.17436   1.000
    N44     N    0.80976   0.66460   0.67435   1.000
    N45     N    0.75974   0.12040   0.62290   1.000
    N46     N    0.75974   0.62039   0.12292   1.000
    N47     N    0.75974   0.62039   0.62290   1.000
    N48     N    0.31604   0.08272   0.09342   1.000
    N49     N    0.31604   0.08272   0.59341   1.000
    N50     N    0.31604   0.58270   0.09342   1.000
    N51     N    0.31604   0.58270   0.59341   1.000
    N52     N    0.81603   0.08272   0.09342   1.000
    N53     N    0.81603   0.08272   0.59340   1.000
    N54     N    0.81603   0.58271   0.09340   1.000
    N55     N    0.81603   0.58271   0.59340   1.000
    N56     N    0.39842   0.15670   0.17946   1.000
    N57     N    0.39842   0.15670   0.67940   1.000
    N58     N    0.39842   0.65668   0.17946   1.000
    N59     N    0.39842   0.65668   0.67940   1.000
    N60     N    0.89841   0.15670   0.17940   1.000
    N61     N    0.89841   0.15670   0.67944   1.000
    N62     N    0.89841   0.65669   0.17946   1.000
    N63     N    0.89841   0.65669   0.67944   1.000
    N64     N    0.36420   0.33533   0.17438   1.000
    N65     N    0.36420   0.33533   0.67436   1.000
    N66     N    0.36420   0.83531   0.17438   1.000
    N67     N    0.36420   0.83531   0.67436   1.000
    N68     N    0.86419   0.33533   0.17430   1.000
    N69     N    0.86419   0.33533   0.67436   1.000
    N70     N    0.86419   0.83531   0.17437   1.000
    N71     N    0.86420   0.83531   0.67436   1.000
    N72     N    0.36248   0.37953   0.12290   1.000
    N73     N    0.36249   0.37953   0.62288   1.000
    N74     N    0.36249   0.87952   0.12290   1.000
    N75     N    0.36249   0.87952   0.62288   1.000
    N76     N    0.86248   0.37953   0.12289   1.000
    N77     N    0.86248   0.37954   0.62288   1.000
    N78     N    0.86248   0.87952   0.12200   1.000
    N79     N    0.86249   0.87952   0.62288   1.000
    N80     N    0.27653   0.41732   0.09331   1.000
    N81     N    0.27654   0.41732   0.59329   1.000
    N82     N    0.27653   0.91731   0.09331   1.000
    N83     N    0.27654   0.91731   0.59329   1.000
    N84     N    0.77653   0.41732   0.09330   1.000
    N85     N    0.77653   0.41732   0.59329   1.000
    N86     N    0.77653   0.91731   0.09330   1.000
    N87     N    0.77653   0.91731   0.59329   1.000
    N88     N    0.28065   0.34336   0.17941   1.000
    N89     N    0.28065   0.34336   0.67940   1.000
    N90     N    0.28065   0.84335   0.17940   1.000
    N91     N    0.28065   0.84335   0.67940   1.000
    N92     N    0.78064   0.34337   0.17941   1.000
    N93     N    0.78065   0.34336   0.67940   1.000
    N94     N    0.78065   0.84335   0.17941   1.000
    N95     N    0.78065   0.84335   0.67940   1.000
    N96     N    0.19031   0.33534   0.32563   1.000
    N97     N    0.19032   0.33534   0.82562   1.000
    N98     N    0.19031   0.83532   0.32563   1.000
    N99     N    0.19032   0.83532   0.82562   1.000
    N100    N    0.69030   0.33534   0.32563   1.000
    N101    N    0.69031   0.33534   0.82560   1.000
    N102    N    0.69030   0.83533   0.32563   1.000
    N103    N    0.69031   0.83533   0.82561   1.000
    N104    N    0.24033   0.37956   0.37707   1.000
    N105    N    0.24034   0.37956   0.87706   1.000
    N106    N    0.24034   0.87954   0.37707   1.000
    N107    N    0.24034   0.87954   0.87706   1.000
    N108    N    0.74032   0.37956   0.37707   1.000
    N109    N    0.74033   0.37956   0.87705   1.000
    N110    N    0.74032   0.87955   0.37707   1.000
    N111    N    0.74033   0.87955   0.87705   1.000
    N112    N    0.18405   0.41723   0.40657   1.000
    N113    N    0.18405   0.41723   0.90656   1.000
    N114    N    0.18405   0.91722   0.40657   1.000
    N115    N    0.18405   0.91722   0.90656   1.000
    N116    N    0.68403   0.41724   0.40657   1.000
    N117    N    0.68404   0.41724   0.90656   1.000
    N118    N    0.68404   0.91722   0.40657   1.000
    N119    N    0.68404   0.91723   0.90650   1.000
    N120    N    0.10166   0.34325   0.32054   1.000
    N121    N    0.10167   0.34325   0.82052   1.000
    N122    N    0.10167   0.84324   0.32050   1.000
    N123    N    0.10167   0.84324   0.82052   1.000
    N124    N    0.60165   0.34325   0.32053   1.000
    N125    N    0.60166   0.34325   0.82052   1.000
    N126    N    0.60166   0.84324   0.32053   1.000
    N127    N    0.60166   0.84324   0.82052   1.000
    N128    N    0.13588   0.16462   0.32562   1.000
    N129    N    0.13588   0.16462   0.82561   1.000
    N130    N    0.13588   0.66461   0.32562   1.000
    N131    N    0.13589   0.66461   0.82561   1.000
    N132    N    0.63587   0.16463   0.32562   1.000
    N133    N    0.63588   0.16463   0.82560   1.000
    N134    N    0.63588   0.66461   0.32562   1.000
    N135    N    0.63588   0.66461   0.82560   1.000
    N136    N    0.13759   0.12042   0.37710   1.000
    N137    N    0.13760   0.12042   0.87709   1.000
    N138    N    0.13760   0.62040   0.37710   1.000
    N139    N    0.13760   0.62041   0.87709   1.000
    N140    N    0.63759   0.12042   0.37710   1.000
    N141    N    0.63760   0.12042   0.87709   1.000
    N142    N    0.63759   0.62040   0.37710   1.000
    N143    N    0.63760   0.62041   0.87709   1.000
    N144    N    0.22355   0.08263   0.40669   1.000
    N145    N    0.22355   0.08263   0.90668   1.000
    N146    N    0.22355   0.58262   0.40669   1.000
    N147    N    0.22355   0.58262   0.90668   1.000
    N148    N    0.72354   0.08263   0.40669   1.000
    N149    N    0.72355   0.08263   0.90660   1.000
    N150    N    0.72355   0.58262   0.40669   1.000
    N151    N    0.72355   0.58262   0.90660   1.000
    N152    N    0.21943   0.15659   0.32058   1.000
    N153    N    0.21943   0.15659   0.82057   1.000
    N154    N    0.21943   0.65657   0.32058   1.000
    N155    N    0.21943   0.65657   0.82057   1.000
    N156    N    0.71942   0.15659   0.32058   1.000
    N157    N    0.71942   0.15659   0.82056   1.000
    N158    N    0.71942   0.65658   0.32058   1.000
    N159    N    0.71943   0.65658   0.82050   1.000
    Cl160   Cl   0.07739   0.25007   0.15529   1.000
    Cl161   Cl   0.07739   0.25007   0.65520   1.000
    Cl162   Cl   0.07739   0.75006   0.15529   1.000
    Cl163   Cl   0.07739   0.75006   0.65527   1.000
    Cl164   Cl   0.57738   0.25007   0.15529   1.000
    Cl165   Cl   0.57738   0.25007   0.65527   1.000
    Cl166   Cl   0.57738   0.75006   0.15529   1.000
    Cl167   Cl   0.57738   0.75006   0.65527   1.000
    Cl168   Cl   0.42269   0.24988   0.34471   1.000
    Cl169   Cl   0.42270   0.24988   0.84469   1.000
    Cl170   Cl   0.42269   0.74987   0.34471   1.000
    Cl171   Cl   0.42270   0.74987   0.84469   1.000
    Cl172   Cl   0.92268   0.24988   0.34470   1.000
    Cl173   Cl   0.92269   0.24988   0.84469   1.000
    Cl174   Cl   0.92268   0.74987   0.34470   1.000
    Cl175   Cl   0.92269   0.74987   0.84469   1.000
loop_
    _geom_bond_atom_site_label_1
    _geom_bond_atom_site_label_2
    _geom_bond_distance
    _geom_bond_site_symmetry_2
    _ccdc_geom_bond_type
    N86    N78       1.35424      .   S
    N86    C22       1.35066      .   S
    N84    N76       1.35488      .   S
    N84    C20       1.35066      .   S
    N80    N72       1.35488      .   S
    N80    C16       1.35051      .   S
    N82    N74       1.35488      .   S
    N82    C18       1.35051      .   S
    N54    N46       1.35510      .   S
    N54    C14       1.35065      .   S
    N52    N7        1.35485      .   S
    N52    C12       1.35061      .   S
    N50    N5        1.35484      .   S
    N50    C10       1.35061      .   S
    N48    N3        1.35484      .   S
    N48    C8        1.35061      .   S
    N78    N70       1.32980      .   S
    N76    N68       1.31489      .   S
    N74    N66       1.31599      .   S
    N72    N64       1.31599      .   S
    N3     N37       1.31602      .   S
    N5     N39       1.31602      .   S
    N7     N41       1.31600      .   S
    N46    N43       1.31601      .   S
    C22    N94       1.34383      .   S
    C20    N92       1.34384      .   S
    C18    N90       1.34373      .   S
    C16    N88       1.34383      .   S
    C8     N56       1.34370      .   S
    C14    N62       1.34370      .   S
    C12    N60       1.34287      .   S
    C10    N58       1.34370      .   S
    N68    N92       1.36027      .   S
    N43    N62       1.35974      .   S
    N41    N60       1.36012      .   S
    N39    N58       1.35972      .   S
    N37    N56       1.35970      .   S
    N70    N94       1.35964      .   S
    N66    N90       1.35945      .   S
    N64    N88       1.35954      .   S
    N122   N98       1.35950      .   S
    N122   C2        1.34412      .   S
    N124   N100      1.35970      .   S
    N124   C25       1.34371      .   S
    N126   N102      1.35972      .   S
    N126   C27       1.34370      .   S
    N120   N96       1.35977      .   S
    N120   C0        1.34358      .   S
    N156   N132      1.35962      .   S
    N156   C33       1.34384      .   S
    N154   N130      1.35962      .   S
    N154   C31       1.34384      .   S
    N158   N134      1.35962      .   S
    N158   C35       1.34386      .   S
    N152   N128      1.35964      .   S
    N152   C29       1.34384      .   S
    N130   N138      1.31596      .   S
    N128   N136      1.31595      .   S
    N134   N142      1.31596      .   S
    N132   N140      1.31595      .   S
    N100   N108      1.31604      .   S
    N96    N104      1.31603      .   S
    N98    N106      1.31604      .   S
    N102   N110      1.31605      .   S
    C0     N112      1.35061      .   S
    C2     N114      1.35061      .   S
    C25    N116      1.35061      .   S
    C27    N118      1.35061      .   S
    C31    N146      1.35062      .   S
    C29    N144      1.35062      .   S
    C35    N150      1.35061      .   S
    C33    N148      1.35062      .   S
    N106   N114      1.35483      .   S
    N110   N118      1.35482      .   S
    N108   N116      1.35482      .   S
    N104   N112      1.35484      .   S
    N136   N144      1.35487      .   S
    N142   N150      1.35488      .   S
    N140   N148      1.35489      .   S
    N138   N146      1.35487      .   S
    N83    N75       1.35488      .   S
    N83    C19       1.35066      .   S
    N85    N77       1.35488      .   S
    N85    C21       1.35067      .   S
    N81    N73       1.35488      .   S
    N81    C17       1.35067      .   S
    N87    N79       1.35487      .   S
    N87    C23       1.35067      .   S
    N53    N45       1.35483      .   S
    N53    C13       1.35060      .   S
    N55    N47       1.35485      .   S
    N55    C15       1.35060      .   S
    N49    N4        1.35484      .   S
    N49    C9        1.35061      .   S
    N51    N6        1.35484      .   S
    N51    C11       1.35061      .   S
    N73    N65       1.31599      .   S
    N77    N69       1.31600      .   S
    N79    N71       1.31599      .   S
    N75    N67       1.31599      .   S
    N47    N44       1.31610      .   S
    N45    N42       1.31611      .   S
    N6     N40       1.31601      .   S
    N4     N38       1.31602      .   S
    C23    N95       1.34384      .   S
    C21    N93       1.34385      .   S
    C17    N89       1.34384      .   S
    C19    N91       1.34385      .   S
    C15    N63       1.34370      .   S
    C13    N61       1.34368      .   S
    C11    N59       1.34299      .   S
    C9     N57       1.34299      .   S
    N44    N63       1.35979      .   S
    N40    N59       1.36006      .   S
    N42    N61       1.35980      .   S
    N38    N57       1.36004      .   S
    N71    N95       1.35965      .   S
    N69    N93       1.35965      .   S
    N65    N89       1.35965      .   S
    N67    N91       1.35965      .   S
    N159   N135      1.36017      .   S
    N159   C36       1.34446      .   S
    N127   N103      1.35977      .   S
    N127   C28       1.34371      .   S
    N121   N97       1.35972      .   S
    N121   C1        1.34370      .   S
    N125   N101      1.35984      .   S
    N125   C26       1.34370      .   S
    N123   N99       1.35970      .   S
    N123   C24       1.34371      .   S
    N157   N133      1.35960      .   S
    N157   C34       1.34384      .   S
    N155   N131      1.35964      .   S
    N155   C32       1.34385      .   S
    N153   N129      1.35962      .   S
    N153   C30       1.34384      .   S
    N133   N141      1.31611      .   S
    N135   N143      1.31609      .   S
    N101   N109      1.31615      .   S
    N103   N111      1.31604      .   S
    N131   N139      1.31595      .   S
    N129   N137      1.31593      .   S
    N99    N107      1.31603      .   S
    N97    N105      1.31604      .   S
    C26    N117      1.35062      .   S
    C24    N115      1.35061      .   S
    C28    N119      1.35051      .   S
    C1     N113      1.35062      .   S
    C36    N151      1.34955      .   S
    C34    N149      1.34956      .   S
    C32    N147      1.35061      .   S
    C30    N145      1.35061      .   S
    N109   N117      1.35497      .   S
    N111   N119      1.35419      .   S
    N107   N115      1.35485      .   S
    N105   N113      1.35484      .   S
    N137   N145      1.35487      .   S
    N139   N147      1.35488      .   S
    N141   N149      1.35481      .   S
    N143   N151      1.35482      .   S
