# CIF file generated by openbabel 2.4.90, see http://openbabel.sf.net
data_I
_chemical_name_common ''
_cell_length_a 14.53
_cell_length_b 15.861
_cell_length_c 16.411
_cell_angle_alpha 89.999
_cell_angle_beta 89.998
_cell_angle_gamma 89.999
_space_group_name_H-M_alt 'P 1'
_space_group_name_Hall 'P 1'
loop_
    _symmetry_equiv_pos_as_xyz
    x,y,z
loop_
    _atom_site_label
    _atom_site_type_symbol
    _atom_site_fract_x
    _atom_site_fract_y
    _atom_site_fract_z
    _atom_site_occupancy
    Cd0     Cd   0.12228   0.97642   0.31419   1.000
    Cd1     Cd   0.14229   0.93835   0.72198   1.000
    Cd2     Cd   0.37768   0.02362   0.81415   1.000
    Cd3     Cd   0.64231   0.56152   0.27799   1.000
    Cd4     Cd   0.87777   0.47643   0.18579   1.000
    Cd5     Cd   0.85776   0.43836   0.77798   1.000
    Cd6     Cd   0.62236   0.52362   0.68581   1.000
    Cd7     Cd   0.64232   0.93846   0.77798   1.000
    Cd8     Cd   0.87776   0.02359   0.68579   1.000
    Cd9     Cd   0.85775   0.06166   0.27799   1.000
    Cd10    Cd   0.62237   0.97637   0.18582   1.000
    Cd11    Cd   0.35773   0.43847   0.72199   1.000
    Cd12    Cd   0.12228   0.52358   0.81418   1.000
    Cd13    Cd   0.14229   0.56165   0.22199   1.000
    Cd14    Cd   0.37767   0.47637   0.31417   1.000
    Cd15    Cd   0.00000   0.00000   0.00000   1.000
    Cd16    Cd   0.50002   0.00000   0.49990   1.000
    Cd17    Cd   0.00001   0.50000   0.49999   1.000
    Cd18    Cd   0.50002   0.50000   0.00000   1.000
    Cd19    Cd   0.35773   0.06152   0.22199   1.000
