# CIF file generated by openbabel 2.4.90, see http://openbabel.sf.net
data_I
_chemical_name_common ''
_cell_length_a 13.926
_cell_length_b 15.054
_cell_length_c 15.041
_cell_angle_alpha 117.175
_cell_angle_beta 96.398
_cell_angle_gamma 96.64
_space_group_name_H-M_alt 'P 1'
_space_group_name_Hall 'P 1'
loop_
    _symmetry_equiv_pos_as_xyz
    x,y,z
loop_
    _atom_site_label
    _atom_site_type_symbol
    _atom_site_fract_x
    _atom_site_fract_y
    _atom_site_fract_z
    _atom_site_occupancy
    Lv0     Lv   0.75746   0.36072   0.14937   1.000
    Lv1     Lv   0.74976   0.64663   0.35320   1.000
    Lv2     Lv   0.25735   0.14927   0.36048   1.000
    Lv3     Lv   0.74267   0.85074   0.63951   1.000
    Lv4     Lv   0.24997   0.35339   0.64678   1.000
    Lv5     Lv   0.24256   0.63930   0.85062   1.000
