# CIF file generated by openbabel 2.4.90, see http://openbabel.sf.net
data_I
_chemical_name_common ''
_cell_length_a 12.599
_cell_length_b 17.292
_cell_length_c 19.294
_cell_angle_alpha 65.181
_cell_angle_beta 84.55
_cell_angle_gamma 83.659
_space_group_name_H-M_alt 'P 1'
_space_group_name_Hall 'P 1'
loop_
    _symmetry_equiv_pos_as_xyz
    x,y,z
loop_
    _atom_site_label
    _atom_site_type_symbol
    _atom_site_fract_x
    _atom_site_fract_y
    _atom_site_fract_z
    _atom_site_occupancy
    Ba0     Ba   0.35994   0.23530   0.85014   1.000
    Ba1     Ba   0.35994   0.73531   0.35010   1.000
    Ba2     Ba   0.35994   0.73531   0.85014   1.000
    Ba3     Ba   0.85994   0.23529   0.35010   1.000
    Ba4     Ba   0.85993   0.23530   0.85014   1.000
    Ba5     Ba   0.85993   0.73531   0.35015   1.000
    Ba6     Ba   0.85993   0.73531   0.85014   1.000
    Ba7     Ba   0.39296   0.43134   0.46672   1.000
    Ba8     Ba   0.39296   0.43134   0.96671   1.000
    Ba9     Ba   0.39296   0.93135   0.46672   1.000
    Ba10    Ba   0.39296   0.93136   0.96671   1.000
    Ba11    Ba   0.89296   0.43134   0.46672   1.000
    Ba12    Ba   0.89296   0.43134   0.96671   1.000
    Ba13    Ba   0.89296   0.93135   0.46672   1.000
    Ba14    Ba   0.89295   0.93136   0.96671   1.000
    Ba15    Ba   0.14005   0.26473   0.14984   1.000
    Ba16    Ba   0.14005   0.26473   0.64983   1.000
    Ba17    Ba   0.14005   0.76474   0.14984   1.000
    Ba18    Ba   0.14004   0.76475   0.64983   1.000
    Ba19    Ba   0.64005   0.26473   0.14984   1.000
    Ba20    Ba   0.64004   0.26473   0.64983   1.000
    Ba21    Ba   0.64004   0.76474   0.14984   1.000
    Ba22    Ba   0.64004   0.76475   0.64983   1.000
    Ba23    Ba   0.10703   0.06868   0.03327   1.000
    Ba24    Ba   0.10703   0.06869   0.53326   1.000
    Ba25    Ba   0.10703   0.56869   0.03327   1.000
    Ba26    Ba   0.10702   0.56870   0.53326   1.000
    Ba27    Ba   0.60703   0.06868   0.03327   1.000
    Ba28    Ba   0.60702   0.06869   0.53326   1.000
    Ba29    Ba   0.60702   0.56869   0.03327   1.000
    Ba30    Ba   0.60702   0.56870   0.53326   1.000
    Ba31    Ba   0.35994   0.23529   0.35010   1.000
