# CIF file generated by openbabel 2.4.90, see http://openbabel.sf.net
data_I
_chemical_name_common ''
_cell_length_a 14.637
_cell_length_b 15.146
_cell_length_c 16.082
_cell_angle_alpha 93.928
_cell_angle_beta 90.101
_cell_angle_gamma 89.975
_space_group_name_H-M_alt 'P 1'
_space_group_name_Hall 'P 1'
loop_
    _symmetry_equiv_pos_as_xyz
    x,y,z
loop_
    _atom_site_label
    _atom_site_type_symbol
    _atom_site_fract_x
    _atom_site_fract_y
    _atom_site_fract_z
    _atom_site_occupancy
    Zr0     Zr   0.38223   0.15543   0.03555   1.000
    Zr1     Zr   0.15592   0.62159   0.30208   1.000
    Zr2     Zr   0.12897   0.64142   0.04496   1.000
    Zr3     Zr   0.65278   0.87366   0.69137   1.000
    Zr4     Zr   0.88269   0.84015   0.45931   1.000
    Zr5     Zr   0.64896   0.37453   0.19814   1.000
    Zr6     Zr   0.62488   0.35170   0.45187   1.000
    Zr7     Zr   0.14840   0.12566   0.80512   1.000
    Zr8     Zr   0.62159   0.84405   0.96141   1.000
    Zr9     Zr   0.84803   0.37478   0.70119   1.000
    Zr10    Zr   0.87476   0.35536   0.95743   1.000
    Zr11    Zr   0.34755   0.12291   0.30543   1.000
    Zr12    Zr   0.11797   0.15619   0.54101   1.000
    Zr13    Zr   0.35162   0.62216   0.79881   1.000
    Zr14    Zr   0.37550   0.64492   0.54490   1.000
    Zr15    Zr   0.85505   0.87034   0.19719   1.000
    Zr16    Zr   0.42270   0.02380   0.90343   1.000
    Zr17    Zr   0.60669   0.97212   0.82155   1.000
    Zr18    Zr   0.75074   0.22993   0.98053   1.000
    Zr19    Zr   0.56172   0.25753   0.07327   1.000
    Zr20    Zr   0.91698   0.48165   0.09346   1.000
    Zr21    Zr   0.10010   0.51245   0.18735   1.000
    Zr22    Zr   0.21257   0.22756   0.04955   1.000
    Zr23    Zr   0.04498   0.23953   0.92696   1.000
    Zr24    Zr   0.91953   0.97075   0.59339   1.000
    Zr25    Zr   0.10240   0.02522   0.67774   1.000
    Zr26    Zr   0.25184   0.77058   0.52026   1.000
    Zr27    Zr   0.06446   0.73947   0.42452   1.000
    Zr28    Zr   0.41231   0.51927   0.40705   1.000
    Zr29    Zr   0.59441   0.48419   0.31167   1.000
    Zr30    Zr   0.71272   0.76818   0.44580   1.000
    Zr31    Zr   0.54827   0.75878   0.57193   1.000
    Zr32    Zr   0.57958   0.97506   0.09316   1.000
    Zr33    Zr   0.39561   0.02607   0.17459   1.000
    Zr34    Zr   0.25272   0.76713   0.01718   1.000
    Zr35    Zr   0.44201   0.74031   0.92298   1.000
    Zr36    Zr   0.08695   0.51593   0.90798   1.000
    Zr37    Zr   0.90400   0.48509   0.81417   1.000
    Zr38    Zr   0.79267   0.77155   0.95021   1.000
    Zr39    Zr   0.95870   0.75782   0.07465   1.000
    Zr40    Zr   0.08069   0.02607   0.40673   1.000
    Zr41    Zr   0.89842   0.97218   0.32314   1.000
    Zr42    Zr   0.74951   0.22818   0.47989   1.000
    Zr43    Zr   0.93781   0.25724   0.57678   1.000
    Zr44    Zr   0.58772   0.47805   0.58910   1.000
    Zr45    Zr   0.40586   0.51216   0.68517   1.000
    Zr46    Zr   0.28884   0.22739   0.55210   1.000
    Zr47    Zr   0.45295   0.23700   0.42546   1.000
    Zr48    Zr   0.42319   0.96319   0.84701   1.000
    Zr49    Zr   0.35421   0.05208   0.94797   1.000
    Zr50    Zr   0.62153   0.89477   0.84408   1.000
    Zr51    Zr   0.61311   0.98803   0.74401   1.000
    Zr52    Zr   0.80798   0.20749   0.03181   1.000
    Zr53    Zr   0.75769   0.29587   0.93352   1.000
    Zr54    Zr   0.63266   0.30387   0.09704   1.000
    Zr55    Zr   0.48396   0.26273   0.10397   1.000
    Zr56    Zr   0.85121   0.46312   0.04176   1.000
    Zr57    Zr   0.91797   0.53935   0.15248   1.000
    Zr58    Zr   0.10925   0.50060   0.26528   1.000
    Zr59    Zr   0.11750   0.58832   0.16158   1.000
    Zr60    Zr   0.19092   0.15406   0.07265   1.000
    Zr61    Zr   0.29323   0.25178   0.02696   1.000
    Zr62    Zr   0.96967   0.24099   0.89164   1.000
    Zr63    Zr   0.11663   0.19424   0.90342   1.000
    Zr64    Zr   0.91859   0.03089   0.65023   1.000
    Zr65    Zr   0.85173   0.94132   0.54833   1.000
    Zr66    Zr   0.11651   0.10342   0.65650   1.000
    Zr67    Zr   0.10925   0.00884   0.75497   1.000
    Zr68    Zr   0.30852   0.79223   0.46837   1.000
    Zr69    Zr   0.25996   0.70657   0.56945   1.000
    Zr70    Zr   0.13602   0.69318   0.40251   1.000
    Zr71    Zr   0.98722   0.73365   0.39254   1.000
    Zr72    Zr   0.34767   0.53920   0.45939   1.000
    Zr73    Zr   0.41064   0.46251   0.34727   1.000
    Zr74    Zr   0.60478   0.49660   0.23402   1.000
    Zr75    Zr   0.60925   0.40728   0.33651   1.000
    Zr76    Zr   0.69124   0.84097   0.42088   1.000
    Zr77    Zr   0.79352   0.74411   0.46851   1.000
    Zr78    Zr   0.47411   0.75792   0.60909   1.000
    Zr79    Zr   0.62066   0.80409   0.59346   1.000
    Zr80    Zr   0.57832   0.03521   0.15001   1.000
    Zr81    Zr   0.64844   0.94779   0.04858   1.000
    Zr82    Zr   0.38222   0.10377   0.15251   1.000
    Zr83    Zr   0.38738   0.00946   0.25188   1.000
    Zr84    Zr   0.19554   0.78844   0.96539   1.000
    Zr85    Zr   0.24576   0.70269   0.06597   1.000
    Zr86    Zr   0.37152   0.69305   0.89950   1.000
    Zr87    Zr   0.51977   0.73619   0.89224   1.000
    Zr88    Zr   0.15239   0.53359   0.96025   1.000
    Zr89    Zr   0.08615   0.45898   0.84829   1.000
    Zr90    Zr   0.89458   0.49640   0.73616   1.000
    Zr91    Zr   0.88671   0.40929   0.84029   1.000
    Zr92    Zr   0.81612   0.84460   0.92729   1.000
    Zr93    Zr   0.71117   0.74837   0.97162   1.000
    Zr94    Zr   0.03358   0.75562   0.11070   1.000
    Zr95    Zr   0.88716   0.80348   0.09781   1.000
    Zr96    Zr   0.08130   0.96648   0.34935   1.000
    Zr97    Zr   0.14862   0.05499   0.45178   1.000
    Zr98    Zr   0.88619   0.89331   0.34372   1.000
    Zr99    Zr   0.89087   0.98887   0.24614   1.000
    Zr100   Zr   0.69213   0.20742   0.53156   1.000
    Zr101   Zr   0.74214   0.29171   0.43007   1.000
    Zr102   Zr   0.86674   0.30334   0.60032   1.000
    Zr103   Zr   0.01562   0.26272   0.60768   1.000
    Zr104   Zr   0.65167   0.45934   0.53577   1.000
    Zr105   Zr   0.58946   0.53435   0.64928   1.000
    Zr106   Zr   0.39555   0.49993   0.76288   1.000
    Zr107   Zr   0.39068   0.58889   0.66010   1.000
    Zr108   Zr   0.31147   0.15437   0.57574   1.000
    Zr109   Zr   0.20744   0.25171   0.53129   1.000
    Zr110   Zr   0.52742   0.23752   0.38873   1.000
    Zr111   Zr   0.38049   0.19208   0.40345   1.000
    O112    O    0.24924   0.73491   0.04157   1.000
    O113    O    0.22413   0.77778   0.99128   1.000
    O114    O    0.33773   0.20361   0.03126   1.000
    O115    O    0.25290   0.23967   0.03826   1.000
    O116    O    0.77936   0.21871   0.00617   1.000
    O117    O    0.38222   0.12960   0.09403   1.000
    O118    O    0.36822   0.10376   0.99176   1.000
    O119    O    0.88410   0.47238   0.06761   1.000
    O120    O    0.86299   0.40924   0.99959   1.000
    O121    O    0.18737   0.67205   0.05547   1.000
    O122    O    0.12324   0.61487   0.10327   1.000
    O123    O    0.14068   0.58750   0.00261   1.000
    O124    O    0.61401   0.96143   0.07087   1.000
    O125    O    0.63502   0.89592   0.00500   1.000
    O126    O    0.20174   0.19081   0.06110   1.000
    O127    O    0.59719   0.28070   0.08515   1.000
    O128    O    0.52284   0.26013   0.08862   1.000
    O129    O    0.92293   0.78065   0.08623   1.000
    O130    O    0.99614   0.75672   0.09268   1.000
    O131    O    0.57895   0.00514   0.12158   1.000
    O132    O    0.91748   0.51050   0.12297   1.000
    O133    O    0.64081   0.33920   0.14759   1.000
    O134    O    0.87111   0.83691   0.14750   1.000
    O135    O    0.38891   0.06492   0.16355   1.000
    O136    O    0.10880   0.55039   0.17447   1.000
    O137    O    0.39150   0.01776   0.21323   1.000
    O138    O    0.10467   0.50652   0.22632   1.000
    O139    O    0.87296   0.92961   0.22166   1.000
    O140    O    0.62687   0.43557   0.21608   1.000
    O141    O    0.59959   0.49040   0.27284   1.000
    O142    O    0.89465   0.98053   0.28464   1.000
    O143    O    0.36747   0.06619   0.27865   1.000
    O144    O    0.13258   0.56109   0.28368   1.000
    O145    O    0.14597   0.65739   0.35230   1.000
    O146    O    0.36402   0.15749   0.35444   1.000
    O147    O    0.60183   0.44574   0.32409   1.000
    O148    O    0.89231   0.93274   0.33343   1.000
    O149    O    0.61707   0.37949   0.39419   1.000
    O150    O    0.88444   0.86673   0.40152   1.000
    O151    O    0.41148   0.49089   0.37716   1.000
    O152    O    0.08099   0.99628   0.37804   1.000
    O153    O    0.49019   0.23726   0.40709   1.000
    O154    O    0.02584   0.73656   0.40853   1.000
    O155    O    0.10024   0.71632   0.41351   1.000
    O156    O    0.41672   0.21454   0.41445   1.000
    O157    O    0.11465   0.04053   0.42926   1.000
    O158    O    0.37999   0.52923   0.43322   1.000
    O159    O    0.70198   0.80458   0.43334   1.000
    O160    O    0.68351   0.32170   0.44097   1.000
    O161    O    0.74583   0.25994   0.45498   1.000
    O162    O    0.75312   0.75614   0.45716   1.000
    O163    O    0.13329   0.10559   0.49640   1.000
    O164    O    0.63828   0.40552   0.49382   1.000
    O165    O    0.83811   0.79213   0.46391   1.000
    O166    O    0.86721   0.89073   0.50382   1.000
    O167    O    0.36158   0.59206   0.50215   1.000
    O168    O    0.28018   0.78140   0.49432   1.000
    O169    O    0.72082   0.21780   0.50573   1.000
    O170    O    0.25590   0.73857   0.54485   1.000
    O171    O    0.16271   0.20395   0.53615   1.000
    O172    O    0.24814   0.23955   0.54169   1.000
    O173    O    0.61970   0.46869   0.56244   1.000
    O174    O    0.11724   0.12980   0.59876   1.000
    O175    O    0.31773   0.67574   0.55717   1.000
    O176    O    0.38309   0.61690   0.60250   1.000
    O177    O    0.88563   0.95603   0.57086   1.000
    O178    O    0.30016   0.19088   0.56392   1.000
    O179    O    0.58447   0.78143   0.58270   1.000
    O180    O    0.51119   0.75835   0.59051   1.000
    O181    O    0.90227   0.28029   0.58855   1.000
    O182    O    0.97671   0.25998   0.59223   1.000
    O183    O    0.58859   0.50620   0.61919   1.000
    O184    O    0.91906   0.00082   0.62181   1.000
    O185    O    0.63672   0.83888   0.64242   1.000
    O186    O    0.85738   0.33906   0.65076   1.000
    O187    O    0.10945   0.06432   0.66712   1.000
    O188    O    0.39827   0.55053   0.67264   1.000
    O189    O    0.10582   0.01703   0.71635   1.000
    O190    O    0.40071   0.50605   0.72403   1.000
    O191    O    0.63294   0.93084   0.71769   1.000
    O192    O    0.87130   0.43559   0.71868   1.000
    O193    O    0.89929   0.49075   0.77516   1.000
    O194    O    0.60990   0.98007   0.78278   1.000
    O195    O    0.12883   0.06725   0.78005   1.000
    O196    O    0.37359   0.56105   0.78085   1.000
    O197    O    0.36157   0.65761   0.84915   1.000
    O198    O    0.13251   0.15995   0.85427   1.000
    O199    O    0.89535   0.44719   0.82723   1.000
    O200    O    0.61411   0.93344   0.83282   1.000
    O201    O    0.88074   0.38233   0.89886   1.000
    O202    O    0.62156   0.86941   0.90275   1.000
    O203    O    0.42294   0.99350   0.87522   1.000
    O204    O    0.08655   0.48745   0.87814   1.000
    O205    O    0.00733   0.24026   0.90930   1.000
    O206    O    0.48089   0.73825   0.90761   1.000
    O207    O    0.40676   0.71668   0.91124   1.000
    O208    O    0.08081   0.21688   0.91519   1.000
    O209    O    0.38845   0.03794   0.92570   1.000
    O210    O    0.11967   0.52476   0.93412   1.000
    O211    O    0.80439   0.80807   0.93875   1.000
    O212    O    0.81623   0.32562   0.94548   1.000
    O213    O    0.75421   0.26290   0.95703   1.000
    O214    O    0.75192   0.75996   0.96091   1.000
    O215    O    0.66638   0.79621   0.96652   1.000
    O216    O    0.62911   0.39091   0.26733   1.000
    O217    O    0.37115   0.60553   0.72945   1.000
    N218    N    0.09312   0.36600   0.07944   1.000
    O219    O    0.13502   0.31496   0.06565   1.000
    O220    O    0.02628   0.40943   0.08327   1.000
    O221    O    0.07335   0.31771   0.02263   1.000
    O222    O    0.01525   0.36148   0.03432   1.000
    O223    O    0.09217   0.41967   0.11851   1.000
    N224    N    0.39265   0.88129   0.06381   1.000
    O225    O    0.39698   0.93423   0.10378   1.000
    O226    O    0.41238   0.82775   0.01121   1.000
    O227    O    0.47541   0.86635   0.02631   1.000
    O228    O    0.34389   0.83816   0.04460   1.000
    O229    O    0.46377   0.91604   0.07365   1.000
    N230    N    0.00440   0.74760   0.73594   1.000
    O231    O    0.14671   0.69540   0.76006   1.000
    O232    O    0.86060   0.79974   0.71781   1.000
    N233    N    0.50086   0.74879   0.23484   1.000
    O234    O    0.35929   0.69608   0.26052   1.000
    O235    O    0.64548   0.79946   0.21881   1.000
    N236    N    0.91178   0.63194   0.92163   1.000
    O237    O    0.99025   0.63607   0.96720   1.000
    O238    O    0.91234   0.57813   0.88271   1.000
    O239    O    0.93105   0.68004   0.97862   1.000
    O240    O    0.97815   0.58834   0.91799   1.000
    O241    O    0.86984   0.68335   0.93501   1.000
    N242    N    0.99591   0.24889   0.26261   1.000
    O243    O    0.13969   0.19672   0.28019   1.000
    O244    O    0.85373   0.30123   0.23804   1.000
    N245    N    0.10922   0.88178   0.56570   1.000
    O246    O    0.10341   0.93421   0.60605   1.000
    O247    O    0.03711   0.91476   0.57490   1.000
    O248    O    0.09122   0.82779   0.51288   1.000
    O249    O    0.02732   0.86523   0.52687   1.000
    O250    O    0.15906   0.83973   0.54691   1.000
    N251    N    0.50094   0.24960   0.76350   1.000
    O252    O    0.64325   0.30166   0.73962   1.000
    O253    O    0.35680   0.19819   0.78060   1.000
    N254    N    0.89142   0.11566   0.43524   1.000
    O255    O    0.84186   0.15816   0.45383   1.000
    O256    O    0.89716   0.06315   0.39491   1.000
    O257    O    0.96336   0.08238   0.42579   1.000
    O258    O    0.97335   0.13177   0.47388   1.000
    O259    O    0.90995   0.16942   0.48817   1.000
    N260    N    0.41015   0.36529   0.57777   1.000
    O261    O    0.48770   0.35968   0.53127   1.000
    O262    O    0.42784   0.31632   0.52100   1.000
    O263    O    0.36736   0.31443   0.56541   1.000
    O264    O    0.47733   0.40774   0.58047   1.000
    O265    O    0.41202   0.41915   0.61654   1.000
    N266    N    0.61039   0.11655   0.93256   1.000
    O267    O    0.59091   0.17009   0.98513   1.000
    O268    O    0.53899   0.08219   0.92272   1.000
    O269    O    0.52785   0.13203   0.97018   1.000
    O270    O    0.65936   0.15937   0.95218   1.000
    O271    O    0.60578   0.06379   0.89247   1.000
    N272    N    0.59062   0.63085   0.41932   1.000
    O273    O    0.63369   0.68150   0.43196   1.000
    O274    O    0.51295   0.63664   0.46570   1.000
    O275    O    0.57310   0.67969   0.47621   1.000
    O276    O    0.58857   0.57708   0.38045   1.000
    O277    O    0.52317   0.58881   0.41630   1.000
loop_
    _geom_bond_atom_site_label_1
    _geom_bond_atom_site_label_2
    _geom_bond_distance
    _geom_bond_site_symmetry_2
    _ccdc_geom_bond_type
    Zr34   O112      0.64886      .   S
    Zr85   O112      0.64886      .   S
    Zr34   O113      0.61895  1_554   S
    Zr84   O113      0.61895      .   S
    Zr61   O114      0.98372      .   S
    Zr0    O114      0.98372      .   S
    Zr61   O115      0.64820      .   S
    Zr22   O115      0.64820      .   S
    Zr52   O116      0.61909      .   S
    Zr18   O116      0.61909  1_556   S
    Zr0    O117      1.04306      .   S
    Zr82   O117      1.04306      .   S
    Zr0    O118      1.03672  1_554   S
    Zr49   O118      1.03672      .   S
    Zr56   O119      0.64467      .   S
    Zr20   O119      0.64467      .   S
    Zr56   O120      1.03917  1_554   S
    Zr10   O120      1.03917      .   S
    Zr2    O121      0.98152      .   S
    Zr85   O121      0.98152      .   S
    Zr2    O122      1.04884      .   S
    Zr59   O122      1.04884      .   S
    Zr2    O123      1.04133      .   S
    Zr88   O123      1.04133  1_556   S
    Zr81   O124      0.64459      .   S
    Zr32   O124      0.64459      .   S
    Zr81   O125      1.03508      .   S
    Zr8    O125      1.03508  1_556   S
    Zr22   O126      0.61951      .   S
    Zr60   O126      0.61951      .   S
    Zr19   O127      0.64795      .   S
    Zr54   O127      0.64795      .   S
    Zr19   O128      0.62087      .   S
    Zr55   O128      0.62087      .   S
    Zr39   O129      0.64786      .   S
    Zr95   O129      0.64786      .   S
    Zr39   O130      0.62022      .   S
    Zr94   O130      0.62022  1_455   S
    Zr32   O131      0.62291  1_565   S
    Zr80   O131      0.62291      .   S
    Zr20   O132      0.62276      .   S
    Zr57   O132      0.62276      .   S
    Zr54   O133      0.94953      .   S
    Zr5    O133      0.94953      .   S
    Zr95   O134      0.94624      .   S
    Zr15   O134      0.94624      .   S
    Zr82   O135      0.63372      .   S
    Zr33   O135      0.63372      .   S
    Zr59   O136      0.63701      .   S
    Zr21   O136      0.63701      .   S
    Zr33   O137      0.64538      .   S
    Zr83   O137      0.64538      .   S
    Zr21   O138      0.64250      .   S
    Zr58   O138      0.64250      .   S
    Zr15   O139      0.99036      .   S
    Zr99   O139      0.99036      .   S
    Zr5    O140      1.00298      .   S
    Zr74   O140      1.00298      .   S
    Zr74   O141      0.64244      .   S
    Zr29   O141      0.64244      .   S
    Zr99   O142      0.64268      .   S
    Zr41   O142      0.64268      .   S
    Zr83   O143      0.97882      .   S
    Zr11   O143      0.97882      .   S
    Zr58   O144      1.00326      .   S
    Zr1    O144      1.00326      .   S
    Zr1    O145      0.95269      .   S
    Zr70   O145      0.95269      .   S
    Zr11   O146      0.94687      .   S
    Zr111  O146      0.94687      .   S
    Zr29   O147      0.63777      .   S
    Zr75   O147      0.63777      .   S
    Zr41   O148      0.63704      .   S
    Zr98   O148      0.63704      .   S
    Zr75   O149      1.05064      .   S
    Zr6    O149      1.05064      .   S
    Zr98   O150      1.03822      .   S
    Zr4    O150      1.03822      .   S
    Zr73   O151      0.62263      .   S
    Zr28   O151      0.62263      .   S
    Zr96   O152      0.62292      .   S
    Zr40   O152      0.62292  1_545   S
    Zr110  O153      0.62049      .   S
    Zr47   O153      0.62049      .   S
    Zr71   O154      0.62094  1_655   S
    Zr27   O154      0.62094      .   S
    Zr70   O155      0.64818      .   S
    Zr27   O155      0.64818      .   S
    Zr111  O156      0.64795      .   S
    Zr47   O156      0.64795      .   S
    Zr40   O157      0.64419      .   S
    Zr97   O157      0.64419      .   S
    Zr28   O158      0.64469      .   S
    Zr72   O158      0.64469      .   S
    Zr76   O159      0.61944      .   S
    Zr30   O159      0.61944      .   S
    Zr101  O160      0.98122      .   S
    Zr6    O160      0.98122      .   S
    Zr101  O161      0.64901      .   S
    Zr42   O161      0.64901      .   S
    Zr30   O162      0.64834      .   S
    Zr77   O162      0.64834      .   S
    Zr97   O163      1.03800      .   S
    Zr12   O163      1.03800      .   S
    Zr6    O164      1.04036      .   S
    Zr104  O164      1.04036      .   S
    Zr4    O165      0.98401      .   S
    Zr77   O165      0.98401      .   S
    Zr4    O166      1.03732      .   S
    Zr65   O166      1.03732      .   S
    Zr72   O167      1.03899      .   S
    Zr14   O167      1.03899      .   S
    Zr68   O168      0.61895      .   S
    Zr26   O168      0.61895      .   S
    Zr42   O169      0.61909      .   S
    Zr100  O169      0.61909      .   S
    Zr26   O170      0.64889      .   S
    Zr69   O170      0.64889      .   S
    Zr109  O171      0.98309      .   S
    Zr12   O171      0.98309      .   S
    Zr109  O172      0.64857      .   S
    Zr46   O172      0.64857      .   S
    Zr104  O173      0.64451      .   S
    Zr44   O173      0.64451      .   S
    Zr12   O174      1.03591      .   S
    Zr66   O174      1.03591      .   S
    Zr14   O175      0.97954      .   S
    Zr69   O175      0.97954      .   S
    Zr14   O176      1.05064      .   S
    Zr107  O176      1.05064      .   S
    Zr65   O177      0.64463      .   S
    Zr24   O177      0.64463      .   S
    Zr46   O178      0.61933      .   S
    Zr108  O178      0.61933      .   S
    Zr31   O179      0.64816      .   S
    Zr79   O179      0.64816      .   S
    Zr31   O180      0.62026      .   S
    Zr78   O180      0.62026      .   S
    Zr43   O181      0.64756      .   S
    Zr102  O181      0.64756      .   S
    Zr43   O182      0.62118      .   S
    Zr103  O182      0.62118  1_455   S
    Zr44   O183      0.62272      .   S
    Zr105  O183      0.62272      .   S
    Zr24   O184      0.62284  1_565   S
    Zr64   O184      0.62284      .   S
    Zr79   O185      0.94625      .   S
    Zr3    O185      0.94625      .   S
    Zr102  O186      0.95365      .   S
    Zr9    O186      0.95365      .   S
    Zr66   O187      0.63605      .   S
    Zr25   O187      0.63605      .   S
    Zr107  O188      0.63761      .   S
    Zr45   O188      0.63761      .   S
    Zr25   O189      0.64341      .   S
    Zr67   O189      0.64341      .   S
    Zr45   O190      0.64254      .   S
    Zr106  O190      0.64254      .   S
    Zr3    O191      0.98159      .   S
    Zr51   O191      0.98159      .   S
    Zr9    O192      1.00399      .   S
    Zr90   O192      1.00399      .   S
    Zr90   O193      0.64242      .   S
    Zr37   O193      0.64242      .   S
    Zr51   O194      0.64489      .   S
    Zr17   O194      0.64489      .   S
    Zr67   O195      0.98906      .   S
    Zr7    O195      0.98906      .   S
    Zr106  O196      1.00356      .   S
    Zr13   O196      1.00356      .   S
    Zr13   O197      0.95135      .   S
    Zr86   O197      0.95135      .   S
    Zr7    O198      0.94489      .   S
    Zr63   O198      0.94489      .   S
    Zr37   O199      0.63746      .   S
    Zr91   O199      0.63746      .   S
    Zr17   O200      0.63419      .   S
    Zr50   O200      0.63419      .   S
    Zr91   O201      1.05578      .   S
    Zr10   O201      1.05578      .   S
    Zr50   O202      1.04270      .   S
    Zr8    O202      1.04270      .   S
    Zr48   O203      0.62291      .   S
    Zr16   O203      0.62291  1_545   S
    Zr89   O204      0.62292      .   S
    Zr36   O204      0.62292      .   S
    Zr62   O205      0.62008  1_655   S
    Zr23   O205      0.62008      .   S
    Zr87   O206      0.62077      .   S
    Zr35   O206      0.62077      .   S
    Zr86   O207      0.64847      .   S
    Zr35   O207      0.64847      .   S
    Zr63   O208      0.64784      .   S
    Zr23   O208      0.64784      .   S
    Zr16   O209      0.64452      .   S
    Zr49   O209      0.64452      .   S
    Zr36   O210      0.64464      .   S
    Zr88   O210      0.64464      .   S
    Zr92   O211      0.61936      .   S
    Zr38   O211      0.61936      .   S
    Zr53   O212      0.98080      .   S
    Zr10   O212      0.98080      .   S
    Zr53   O213      0.64870      .   S
    Zr18   O213      0.64870      .   S
    Zr38   O214      0.64867      .   S
    Zr93   O214      0.64867      .   S
    Zr8    O215      0.98441      .   S
    Zr93   O215      0.98441      .   S
    Zr75   O216      1.16073      .   S
    Zr5    O216      1.16073      .   S
    Zr107  O217      1.16262      .   S
    Zr13   O217      1.16262      .   S
    N218   O219      0.99983      .   S
    Zr22   O219      1.74935      .   S
    N218   O220      1.17798      .   S
    Zr20   O220      1.93836  1_655   S
    N218   O221      1.16663      .   S
    Zr23   O221      1.92099  1_556   S
    N218   O222      1.34925      .   S
    Zr10   O222      2.39615  1_656   S
    N218   O223      0.99298      .   S
    Zr21   O223      1.73204      .   S
    N224   O225      0.99474      .   S
    Zr33   O225      1.73632  1_545   S
    N224   O226      1.16765      .   S
    Zr35   O226      1.92327  1_556   S
    N224   O227      1.36598      .   S
    Zr8    O227      2.39594  1_556   S
    N224   O228      1.00177      .   S
    Zr34   O228      1.75126      .   S
    N224   O229      1.17231      .   S
    Zr32   O229      1.93175      .   S
    N230   O231      2.26976      .   S
    Zr13   O231      3.27108      .   S
    N230   O232      2.27308  1_455   S
    Zr3    O232      3.27796      .   S
    N233   O234      2.26978      .   S
    Zr1    O234      3.27013      .   S
    N233   O235      2.27297      .   S
    Zr15   O235      3.27734      .   S
    N236   O237      1.36053      .   S
    Zr2    O237      2.38136  1_454   S
    N236   O238      0.99315      .   S
    Zr37   O238      1.73274      .   S
    N236   O239      1.16536      .   S
    Zr39   O239      1.91979  1_554   S
    N236   O240      1.17376      .   S
    Zr36   O240      1.93388  1_455   S
    N236   O241      1.00327      .   S
    Zr38   O241      1.75358      .   S
    N242   O243      2.27172  1_655   S
    Zr11   O243      3.27503      .   S
    N242   O244      2.27025      .   S
    Zr5    O244      3.27337      .   S
    N245   O246      0.99429      .   S
    Zr25   O246      1.73535  1_545   S
    N245   O247      1.17286      .   S
    Zr24   O247      1.93264  1_655   S
    N245   O248      1.16784      .   S
    Zr27   O248      1.92366      .   S
    N245   O249      1.36601      .   S
    Zr4    O249      2.39632  1_655   S
    N245   O250      1.00152      .   S
    Zr26   O250      1.75058      .   S
    N251   O252      2.27013      .   S
    Zr9    O252      3.27039      .   S
    N251   O253      2.27297      .   S
    Zr7    O253      3.27613      .   S
    N254   O255      1.00200      .   S
    Zr42   O255      1.75141      .   S
    N254   O256      0.99480      .   S
    Zr41   O256      1.73584  1_565   S
    N254   O257      1.17280      .   S
    Zr40   O257      1.93264  1_455   S
    N254   O258      1.36403      .   S
    Zr12   O258      2.39192  1_455   S
    N254   O259      1.16854      .   S
    Zr43   O259      1.92492      .   S
    N260   O261      1.35979      .   S
    Zr6    O261      2.38008      .   S
    N260   O262      1.16566      .   S
    Zr47   O262      1.92041      .   S
    N260   O263      1.00207      .   S
    Zr46   O263      1.75114      .   S
    N260   O264      1.17428      .   S
    Zr44   O264      1.93501      .   S
    N260   O265      0.99261      .   S
    Zr45   O265      1.73147      .   S
    N266   O267      1.16633      .   S
    Zr19   O267      1.92097  1_554   S
    N266   O268      1.17334      .   S
    Zr16   O268      1.93329      .   S
    N266   O269      1.36519      .   S
    Zr0    O269      2.39368  1_554   S
    N266   O270      1.00269      .   S
    Zr18   O270      1.75251      .   S
    N266   O271      0.99409      .   S
    Zr17   O271      1.73544  1_565   S
    N272   O273      1.00290      .   S
    Zr30   O273      1.75262      .   S
    N272   O274      1.36042      .   S
    Zr14   O274      2.38166      .   S
    N272   O275      1.16533      .   S
    Zr31   O275      1.91983      .   S
    N272   O276      0.99242      .   S
    Zr29   O276      1.73130      .   S
    N272   O277      1.17420      .   S
    Zr28   O277      1.93480      .   S
