# CIF file generated by openbabel 2.4.90, see http://openbabel.sf.net
data_I
_chemical_name_common ''
_cell_length_a 13.716
_cell_length_b 14.213
_cell_length_c 15.984
_cell_angle_alpha 90
_cell_angle_beta 90.002
_cell_angle_gamma 90.003
_space_group_name_H-M_alt 'P 1'
_space_group_name_Hall 'P 1'
loop_
    _symmetry_equiv_pos_as_xyz
    x,y,z
loop_
    _atom_site_label
    _atom_site_type_symbol
    _atom_site_fract_x
    _atom_site_fract_y
    _atom_site_fract_z
    _atom_site_occupancy
    Lv0     Lv   0.12491   0.00423   0.75213   1.000
    Lv1     Lv   0.62506   0.99583   0.25209   1.000
    Lv2     Lv   0.87516   0.49647   0.24625   1.000
    Lv3     Lv   0.37516   0.49646   0.24624   1.000
    Lv4     Lv   0.37480   0.50358   0.74618   1.000
    Lv5     Lv   0.87481   0.50357   0.74624   1.000
    Lv6     Lv   0.12506   0.99582   0.25211   1.000
    Lv7     Lv   0.62491   0.00422   0.75204   1.000
