# CIF file generated by openbabel 2.4.90, see http://openbabel.sf.net
data_I
_chemical_name_common ''
_cell_length_a 6.315
_cell_length_b 8.7495
_cell_length_c 9.775
_cell_angle_alpha 64.711
_cell_angle_beta 84.48
_cell_angle_gamma 83.627
_space_group_name_H-M_alt 'P 1'
_space_group_name_Hall 'P 1'
loop_
    _symmetry_equiv_pos_as_xyz
    x,y,z
loop_
    _atom_site_label
    _atom_site_type_symbol
    _atom_site_fract_x
    _atom_site_fract_y
    _atom_site_fract_z
    _atom_site_occupancy
    Zr0     Zr   0.71954   0.97501   0.19902   1.000
    Zr1     Zr   0.78633   0.36134   0.43386   1.000
    Zr2     Zr   0.28054   0.02508   0.80109   1.000
    Zr3     Zr   0.21363   0.63859   0.56625   1.000
    C4      C    0.74594   0.86438   0.64487   1.000
    C5      C    0.26501   0.71717   0.18724   1.000
    C6      C    0.25399   0.13542   0.35528   1.000
    C7      C    0.73501   0.28281   0.81288   1.000
    C8      C    0.85306   0.93556   0.68506   1.000
    O9      O    0.81734   0.91152   0.67196   1.000
    O10     O    0.80585   0.06847   0.62304   1.000
    O11     O    0.67940   0.98441   0.71485   1.000
    O12     O    0.99940   0.93771   0.71634   1.000
    O13     O    0.98267   0.84109   0.65763   1.000
    C14     C    0.63887   0.79649   0.60165   1.000
    O15     O    0.50985   0.85614   0.66790   1.000
    O16     O    0.49312   0.75952   0.60919   1.000
    O17     O    0.68955   0.83319   0.48079   1.000
    O18     O    0.81307   0.74908   0.57260   1.000
    O19     O    0.67456   0.81889   0.61626   1.000
    C20     C    0.36103   0.20333   0.39853   1.000
    O21     O    0.32535   0.18093   0.38391   1.000
    O22     O    0.49010   0.14375   0.33227   1.000
    O23     O    0.50680   0.24033   0.39098   1.000
    O24     O    0.18683   0.25077   0.42755   1.000
    O25     O    0.31038   0.16670   0.51936   1.000
    C26     C    0.14694   0.06436   0.31503   1.000
    O27     O    0.00062   0.06232   0.28372   1.000
    O28     O    0.01732   0.15890   0.34243   1.000
    O29     O    0.19415   0.93142   0.37708   1.000
    O30     O    0.32063   0.01552   0.28527   1.000
    O31     O    0.18263   0.08834   0.32815   1.000
    C32     C    0.07823   0.72409   0.18670   1.000
    O33     O    0.12335   0.82139   0.05930   1.000
    O34     O    0.98310   0.80887   0.15878   1.000
    O35     O    0.14066   0.72131   0.18665   1.000
    O36     O    0.99497   0.61241   0.27967   1.000
    O37     O    0.97827   0.76583   0.22096   1.000
    O38     O    0.10180   0.68172   0.31277   1.000
    C39     C    0.54980   0.28377   0.80978   1.000
    O40     O    0.61145   0.28397   0.81102   1.000
    O41     O    0.45996   0.39397   0.71753   1.000
    O42     O    0.60313   0.32466   0.68443   1.000
    O43     O    0.47668   0.24059   0.77624   1.000
    O44     O    0.58270   0.18464   0.93799   1.000
    O45     O    0.47295   0.19716   0.83850   1.000
    C46     C    0.92180   0.27588   0.81335   1.000
    O47     O    0.85937   0.27867   0.81342   1.000
    O48     O    0.00503   0.38755   0.72039   1.000
    O49     O    0.89820   0.31824   0.68729   1.000
    O50     O    0.02176   0.23417   0.77910   1.000
    O51     O    0.87670   0.17862   0.94077   1.000
    O52     O    0.01695   0.19114   0.84129   1.000
    C53     C    0.45020   0.71620   0.19043   1.000
    O54     O    0.41733   0.81543   0.06222   1.000
    O55     O    0.52708   0.80291   0.16170   1.000
    O56     O    0.54002   0.60591   0.28263   1.000
    O57     O    0.52332   0.75932   0.22393   1.000
    O58     O    0.39684   0.67522   0.31573   1.000
    O59     O    0.38856   0.71600   0.18916   1.000
loop_
    _geom_bond_atom_site_label_1
    _geom_bond_atom_site_label_2
    _geom_bond_distance
    _geom_bond_site_symmetry_2
    _ccdc_geom_bond_type
    C8     O9        0.38808      .   S
    C4     O9        0.77532      .   S
    C8     O10       1.07902  1_565   S
    Zr1    O10       2.43440      .   S
    C8     O11       1.18784      .   S
    Zr2    O11       2.61354  1_545   S
    C8     O12       1.00547      .   S
    Zr2    O12       2.35537  1_445   S
    C8     O13       1.19245      .   S
    Zr3    O13       2.56755  1_455   S
    C14    O15       1.20352      .   S
    Zr2    O15       2.60444  1_545   S
    C14    O16       0.99490      .   S
    Zr3    O16       2.31243      .   S
    C14    O17       1.10776      .   S
    Zr0    O17       2.48871      .   S
    C14    O18       1.18411      .   S
    Zr3    O18       2.61063  1_455   S
    C14    O19       0.38671      .   S
    C4     O19       0.77398      .   S
    C20    O21       0.38675      .   S
    C6     O21       0.77404      .   S
    C20    O22       1.20343      .   S
    Zr0    O22       2.60396  1_565   S
    C20    O23       0.99513      .   S
    Zr1    O23       2.31280      .   S
    C20    O24       1.18408      .   S
    Zr1    O24       2.61040  1_655   S
    C20    O25       1.10756      .   S
    Zr2    O25       2.48828      .   S
    C26    O27       1.00523      .   S
    Zr0    O27       2.35452  1_665   S
    C26    O28       1.19276      .   S
    Zr1    O28       2.56747  1_655   S
    C26    O29       1.07929  1_545   S
    Zr3    O29       2.43412      .   S
    C26    O30       1.18790      .   S
    Zr0    O30       2.61362  1_565   S
    C26    O31       0.38773      .   S
    C6     O31       0.77499      .   S
    C32    O33       1.19858      .   S
    Zr2    O33       2.56897  1_546   S
    C32    O34       0.86325  1_455   S
    Zr0    O34       2.20531      .   S
    C32    O35       0.39228      .   S
    C5     O35       0.78256      .   S
    C32    O36       1.14919  1_455   S
    Zr1    O36       2.50302      .   S
    C32    O37       0.81031  1_455   S
    Zr0    O37       2.26572      .   S
    C32    O38       1.14498      .   S
    Zr3    O38       2.50181      .   S
    C39    O40       0.39085      .   S
    C7     O40       0.78111      .   S
    C39    O41       1.13968      .   S
    Zr3    O41       2.48729      .   S
    C39    O42       1.14695      .   S
    Zr1    O42       2.51129      .   S
    C39    O43       0.79814      .   S
    Zr2    O43       2.28438      .   S
    C39    O44       1.20309      .   S
    Zr0    O44       2.58758  1_564   S
    C39    O45       0.87309      .   S
    Zr2    O45       2.19982      .   S
    C46    O47       0.39227      .   S
    C7     O47       0.78255      .   S
    C46    O48       1.14898  1_655   S
    Zr3    O48       2.50260      .   S
    C46    O49       1.14495      .   S
    Zr1    O49       2.50158      .   S
    C46    O50       0.81014  1_655   S
    Zr2    O50       2.26532      .   S
    C46    O51       1.19857      .   S
    Zr0    O51       2.56898  1_564   S
    C46    O52       0.86318  1_655   S
    Zr2    O52       2.20479      .   S
    C53    O54       1.20330      .   S
    Zr2    O54       2.58816  1_546   S
    C53    O55       0.87393      .   S
    Zr0    O55       2.19966      .   S
    C53    O56       1.13977      .   S
    Zr1    O56       2.48685      .   S
    C53    O57       0.79762      .   S
    Zr0    O57       2.28574      .   S
    C53    O58       1.14655      .   S
    Zr3    O58       2.51089      .   S
    C53    O59       0.39081      .   S
    C5     O59       0.78108      .   S
