# CIF file generated by openbabel 2.4.90, see http://openbabel.sf.net
data_I
_chemical_name_common ''
_cell_length_a 18.426
_cell_length_b 18.432
_cell_length_c 18.431
_cell_angle_alpha 60.143
_cell_angle_beta 60.16
_cell_angle_gamma 60.158
_space_group_name_H-M_alt 'P 1'
_space_group_name_Hall 'P 1'
loop_
    _symmetry_equiv_pos_as_xyz
    x,y,z
loop_
    _atom_site_label
    _atom_site_type_symbol
    _atom_site_fract_x
    _atom_site_fract_y
    _atom_site_fract_z
    _atom_site_occupancy
    Zr0     Zr   0.20663   0.38042   0.20672   1.000
    Zr1     Zr   0.38047   0.20663   0.20663   1.000
    Zr2     Zr   0.20636   0.20630   0.20632   1.000
    Zr3     Zr   0.20663   0.20671   0.38044   1.000
    Zr4     Zr   0.61953   0.79333   0.79338   1.000
    Zr5     Zr   0.79336   0.61954   0.79329   1.000
    Zr6     Zr   0.79364   0.79365   0.79369   1.000
    Zr7     Zr   0.79337   0.79325   0.61957   1.000
    N8      N    0.00000   0.99998   0.50001   1.000
    O9      O    0.91518   0.91516   0.62215   1.000
    O10     O    0.91505   0.91499   0.54777   1.000
    O11     O    0.08482   0.08480   0.37786   1.000
    O12     O    0.08495   0.08497   0.45224   1.000
    N13     N    1.00000   0.49998   0.00000   1.000
    O14     O    0.08495   0.45222   0.08499   1.000
    O15     O    0.91505   0.54774   0.91502   1.000
    O16     O    0.08482   0.37784   0.08482   1.000
    O17     O    0.91518   0.62212   0.91519   1.000
    N18     N    0.50000   0.49998   0.00001   1.000
    O19     O    0.45229   0.37796   0.08499   1.000
    O20     O    0.54771   0.62199   0.91502   1.000
    O21     O    0.37798   0.45225   0.08502   1.000
    O22     O    0.62202   0.54771   0.91500   1.000
    N23     N    0.50000   0.99998   0.49998   1.000
    O24     O    0.45228   0.08498   0.37795   1.000
    O25     O    0.62202   0.91496   0.54772   1.000
    O26     O    0.54771   0.91498   0.62201   1.000
    O27     O    0.37798   0.08500   0.45226   1.000
    N28     N    0.50000   0.99998   0.00000   1.000
    O29     O    0.45226   0.08494   0.08495   1.000
    O30     O    0.37787   0.08479   0.08481   1.000
    O31     O    0.62213   0.91517   0.91520   1.000
    O32     O    0.54774   0.91502   0.91506   1.000
    N33     N    1.00000   0.49998   0.50000   1.000
    O34     O    0.91502   0.62197   0.54772   1.000
    O35     O    0.08498   0.45226   0.37801   1.000
    O36     O    0.91502   0.54769   0.62200   1.000
    O37     O    0.08498   0.37799   0.45228   1.000
    N38     N    0.75001   0.74999   0.75003   1.000
    O39     O    0.76085   0.71738   0.76085   1.000
    O40     O    0.76085   0.76080   0.71742   1.000
    O41     O    0.71739   0.76082   0.76087   1.000
    O42     O    0.76092   0.76090   0.76094   1.000
    N43     N    0.24999   0.24997   0.24998   1.000
    O44     O    0.23915   0.23915   0.28260   1.000
    O45     O    0.23915   0.28258   0.23917   1.000
    O46     O    0.28261   0.23913   0.23914   1.000
    O47     O    0.23908   0.23905   0.23907   1.000
loop_
    _geom_bond_atom_site_label_1
    _geom_bond_atom_site_label_2
    _geom_bond_distance
    _geom_bond_site_symmetry_2
    _ccdc_geom_bond_type
    N8     O9        2.31970  1_455   S
    Zr6    O9        3.30486      .   S
    N8     O10       2.31847  1_455   S
    Zr7    O10       3.30312      .   S
    N8     O11       2.31970  1_565   S
    Zr2    O11       3.30486      .   S
    N8     O12       2.31846  1_565   S
    Zr3    O12       3.30311      .   S
    N13    O14       2.31828  1_655   S
    Zr0    O14       3.30296      .   S
    N13    O15       2.31821  1_554   S
    Zr5    O15       3.30288      .   S
    N13    O16       2.31955  1_655   S
    Zr2    O16       3.30470      .   S
    N13    O17       2.31950  1_554   S
    Zr6    O17       3.30465      .   S
    N18    O19       2.31824      .   S
    Zr1    O19       3.30271      .   S
    N18    O20       2.31824  1_554   S
    Zr4    O20       3.30271      .   S
    N18    O21       2.31822      .   S
    Zr0    O21       3.30270      .   S
    N18    O22       2.31821  1_554   S
    Zr5    O22       3.30270      .   S
    N23    O24       2.31833  1_565   S
    Zr1    O24       3.30223      .   S
    N23    O25       2.31835      .   S
    Zr7    O25       3.30281      .   S
    N23    O26       2.31835      .   S
    Zr4    O26       3.30308      .   S
    N23    O27       2.31807  1_565   S
    Zr3    O27       3.30251      .   S
    N28    O29       2.31882  1_565   S
    Zr1    O29       3.30366      .   S
    N28    O30       2.32005  1_565   S
    Zr2    O30       3.30541      .   S
    N28    O31       2.32002  1_554   S
    Zr6    O31       3.30537      .   S
    N28    O32       2.31877  1_554   S
    Zr4    O32       3.30361      .   S
    N33    O34       2.31858      .   S
    Zr7    O34       3.30316      .   S
    N33    O35       2.31852  1_655   S
    Zr0    O35       3.30313      .   S
    N33    O36       2.31860      .   S
    Zr5    O36       3.30322      .   S
    N33    O37       2.31853  1_655   S
    Zr3    O37       3.30310      .   S
    N38    O39       0.49173      .   S
    Zr5    O39       1.47520      .   S
    N38    O40       0.49175      .   S
    Zr7    O40       1.47524      .   S
    N38    O41       0.49176      .   S
    Zr4    O41       1.47528      .   S
    N38    O42       0.49207      .   S
    Zr6    O42       1.47620      .   S
    N43    O44       0.49175      .   S
    Zr3    O44       1.47524      .   S
    N43    O45       0.49173      .   S
    Zr0    O45       1.47520      .   S
    N43    O46       0.49176      .   S
    Zr1    O46       1.47527      .   S
    N43    O47       0.49207      .   S
    Zr2    O47       1.47620      .   S
