# CIF file generated by openbabel 2.4.90, see http://openbabel.sf.net
data_I
_chemical_name_common ''
_cell_length_a 11.307
_cell_length_b 24.27
_cell_length_c 22.852
_cell_angle_alpha 99.337
_cell_angle_beta 89.988
_cell_angle_gamma 90
_space_group_name_H-M_alt 'P 1'
_space_group_name_Hall 'P 1'
loop_
    _symmetry_equiv_pos_as_xyz
    x,y,z
loop_
    _atom_site_label
    _atom_site_type_symbol
    _atom_site_fract_x
    _atom_site_fract_y
    _atom_site_fract_z
    _atom_site_occupancy
    C0      C    0.62598   0.74661   0.76556   1.000
    C1      C    0.36419   0.14038   0.34534   1.000
    C2      C    0.36389   0.64032   0.34540   1.000
    C3      C    0.86418   0.14038   0.34534   1.000
    C4      C    0.38619   0.38997   0.84561   1.000
    C5      C    0.38624   0.88996   0.84582   1.000
    C6      C    0.88618   0.38997   0.84561   1.000
    C7      C    0.88623   0.88996   0.84582   1.000
    C8      C    0.11378   0.11004   0.15410   1.000
    C9      C    0.11393   0.61003   0.15438   1.000
    C10     C    0.61377   0.11004   0.15413   1.000
    C11     C    0.61392   0.61003   0.15438   1.000
    C12     C    0.12620   0.24667   0.76550   1.000
    C13     C    0.12599   0.74661   0.76556   1.000
    C14     C    0.62619   0.24667   0.76550   1.000
    C15     C    0.86388   0.64032   0.34546   1.000
    C16     C    0.37675   0.00286   0.73433   1.000
    C17     C    0.37640   0.50289   0.73433   1.000
    C18     C    0.87674   0.00286   0.73433   1.000
    C19     C    0.87639   0.50289   0.73433   1.000
    C20     C    0.37416   0.25342   0.23445   1.000
    C21     C    0.37384   0.75331   0.23446   1.000
    C22     C    0.87415   0.25342   0.23445   1.000
    C23     C    0.87383   0.75331   0.23446   1.000
    C24     C    0.13618   0.35966   0.65455   1.000
    C25     C    0.13595   0.85962   0.65460   1.000
    C26     C    0.63617   0.35966   0.65455   1.000
    C27     C    0.63594   0.85962   0.65460   1.000
    C28     C    0.12372   0.49711   0.26567   1.000
    C29     C    0.12329   0.99714   0.26565   1.000
    C30     C    0.62371   0.49711   0.26560   1.000
    C31     C    0.62328   0.99714   0.26565   1.000
