# CIF file generated by openbabel 2.4.90, see http://openbabel.sf.net
data_I
_chemical_name_common ''
_cell_length_a 13.728
_cell_length_b 14.03
_cell_length_c 16.134
_cell_angle_alpha 89.995
_cell_angle_beta 89.988
_cell_angle_gamma 90.083
_space_group_name_H-M_alt 'P 1'
_space_group_name_Hall 'P 1'
loop_
    _symmetry_equiv_pos_as_xyz
    x,y,z
loop_
    _atom_site_label
    _atom_site_type_symbol
    _atom_site_fract_x
    _atom_site_fract_y
    _atom_site_fract_z
    _atom_site_occupancy
    Zr0     Zr   0.21816   0.26453   0.49810   1.000
    Zr1     Zr   0.71815   0.26452   0.49811   1.000
    Zr2     Zr   0.03184   0.73539   0.99812   1.000
    Zr3     Zr   0.53183   0.73540   0.99811   1.000
    Zr4     Zr   0.28183   0.76454   0.99840   1.000
    Zr5     Zr   0.78181   0.76453   0.99845   1.000
    Zr6     Zr   0.46817   0.23539   0.49846   1.000
    Zr7     Zr   0.96816   0.23538   0.49846   1.000
    Zr8     Zr   0.10758   0.30685   0.49707   1.000
    Zr9     Zr   0.60756   0.30685   0.49707   1.000
    Zr10    Zr   0.14243   0.69306   0.99707   1.000
    Zr11    Zr   0.64241   0.69306   0.99707   1.000
    Zr12    Zr   0.39254   0.80683   0.99949   1.000
    Zr13    Zr   0.89253   0.80682   0.99950   1.000
    Zr14    Zr   0.35746   0.19307   0.49951   1.000
    Zr15    Zr   0.85745   0.19306   0.49951   1.000
    O16     O    0.66285   0.28568   0.49759   1.000
    O17     O    0.53787   0.27112   0.49777   1.000
    O18     O    0.16287   0.28569   0.49758   1.000
    O19     O    0.03787   0.27112   0.49777   1.000
    O20     O    0.28781   0.22880   0.49880   1.000
    O21     O    0.78780   0.22879   0.49881   1.000
    O22     O    0.41282   0.21423   0.49899   1.000
    O23     O    0.91281   0.21422   0.49899   1.000
    O24     O    0.58712   0.71423   0.99759   1.000
    O25     O    0.71211   0.72879   0.99776   1.000
    O26     O    0.08714   0.71422   0.99760   1.000
    O27     O    0.21213   0.72880   0.99774   1.000
    O28     O    0.46219   0.77111   0.99880   1.000
    O29     O    0.96219   0.77110   0.99881   1.000
    O30     O    0.33718   0.78568   0.99894   1.000
    O31     O    0.83717   0.78567   0.99897   1.000
    N32     N    0.37519   0.50366   0.74544   1.000
    N33     N    0.12485   0.00362   0.75109   1.000
    N34     N    0.87519   0.50367   0.74542   1.000
    N35     N    0.12516   0.99629   0.25111   1.000
    N36     N    0.87478   0.49628   0.24546   1.000
    N37     N    0.37479   0.49628   0.24546   1.000
    N38     N    0.62484   0.00368   0.75114   1.000
    N39     N    0.62515   0.99624   0.25114   1.000
    C40     C    0.36136   0.34588   0.40040   1.000
    O41     O    0.40847   0.31408   0.42706   1.000
    O42     O    0.30478   0.32525   0.42730   1.000
    O43     O    0.36586   0.39646   0.34823   1.000
    C44     C    0.61113   0.14926   0.40405   1.000
    O45     O    0.55460   0.17115   0.43006   1.000
    O46     O    0.61582   0.09765   0.35267   1.000
    O47     O    0.65829   0.18234   0.42966   1.000
    C48     C    0.11105   0.15398   0.59616   1.000
    O49     O    0.05455   0.17460   0.56927   1.000
    O50     O    0.15824   0.18583   0.56949   1.000
    O51     O    0.11565   0.10341   0.64833   1.000
    C52     C    0.36146   0.35063   0.59250   1.000
    O53     O    0.36607   0.40224   0.64390   1.000
    O54     O    0.30485   0.32874   0.56646   1.000
    O55     O    0.40854   0.31757   0.56692   1.000
    C56     C    0.61103   0.15400   0.59618   1.000
    O57     O    0.55454   0.17461   0.56928   1.000
    O58     O    0.65822   0.18584   0.56950   1.000
    O59     O    0.61564   0.10344   0.64836   1.000
    C60     C    0.86145   0.35063   0.59248   1.000
    O61     O    0.80484   0.32874   0.56645   1.000
    O62     O    0.90853   0.31756   0.56691   1.000
    O63     O    0.86606   0.40224   0.64386   1.000
    C64     C    0.11115   0.14928   0.40407   1.000
    O65     O    0.05462   0.17116   0.43009   1.000
    O66     O    0.11584   0.09768   0.35267   1.000
    O67     O    0.15831   0.18235   0.42967   1.000
    C68     C    0.86135   0.34586   0.40039   1.000
    O69     O    0.90846   0.31407   0.42706   1.000
    O70     O    0.80477   0.32523   0.42730   1.000
    O71     O    0.86585   0.39645   0.34823   1.000
    C72     C    0.13890   0.85066   0.90407   1.000
    O73     O    0.13421   0.90224   0.85266   1.000
    O74     O    0.09173   0.81758   0.92968   1.000
    O75     O    0.19542   0.82877   0.93007   1.000
    C76     C    0.63890   0.85067   0.90408   1.000
    O77     O    0.63420   0.90228   0.85269   1.000
    O78     O    0.59172   0.81759   0.92969   1.000
    O79     O    0.69541   0.82878   0.93009   1.000
    C80     C    0.38867   0.65405   0.90039   1.000
    O81     O    0.38415   0.60347   0.84822   1.000
    O82     O    0.44524   0.67467   0.92730   1.000
    O83     O    0.34155   0.68586   0.92704   1.000
    C84     C    0.13892   0.84595   0.09616   1.000
    O85     O    0.19543   0.82533   0.06925   1.000
    O86     O    0.09174   0.81410   0.06949   1.000
    O87     O    0.13433   0.89651   0.14833   1.000
    C88     C    0.38848   0.64932   0.09251   1.000
    O89     O    0.34142   0.68238   0.06692   1.000
    O90     O    0.44511   0.67121   0.06647   1.000
    O91     O    0.38388   0.59771   0.14391   1.000
    C92     C    0.88847   0.64932   0.09252   1.000
    O93     O    0.84141   0.68237   0.06693   1.000
    O94     O    0.94510   0.67121   0.06647   1.000
    O95     O    0.88387   0.59771   0.14391   1.000
    C96     C    0.63891   0.84594   0.09616   1.000
    O97     O    0.63432   0.89649   0.14835   1.000
    O98     O    0.69542   0.82532   0.06926   1.000
    O99     O    0.59173   0.81410   0.06949   1.000
    C100    C    0.88866   0.65404   0.90039   1.000
    O101    O    0.94523   0.67467   0.92730   1.000
    O102    O    0.88414   0.60347   0.84821   1.000
    O103    O    0.84154   0.68585   0.92705   1.000
loop_
    _geom_bond_atom_site_label_1
    _geom_bond_atom_site_label_2
    _geom_bond_distance
    _geom_bond_site_symmetry_2
    _ccdc_geom_bond_type
    Zr9    O16       0.81552      .   S
    Zr1    O16       0.81552      .   S
    Zr9    O17       1.07958      .   S
    Zr6    O17       1.07958      .   S
    Zr8    O18       0.81551      .   S
    Zr0    O18       0.81551      .   S
    Zr8    O19       1.07976      .   S
    Zr7    O19       1.07976  1_655   S
    Zr0    O20       1.08029      .   S
    Zr14   O20       1.08029      .   S
    Zr1    O21       1.08034      .   S
    Zr15   O21       1.08034      .   S
    Zr6    O22       0.81545      .   S
    Zr14   O22       0.81545      .   S
    Zr7    O23       0.81545      .   S
    Zr15   O23       0.81545      .   S
    Zr11   O24       0.81553      .   S
    Zr3    O24       0.81553      .   S
    Zr11   O25       1.07967      .   S
    Zr5    O25       1.07967      .   S
    Zr10   O26       0.81552      .   S
    Zr2    O26       0.81552      .   S
    Zr10   O27       1.07969      .   S
    Zr4    O27       1.07969      .   S
    Zr3    O28       1.08015      .   S
    Zr12   O28       1.08015      .   S
    Zr2    O29       1.08026  1_455   S
    Zr13   O29       1.08026      .   S
    Zr4    O30       0.81544      .   S
    Zr12   O30       0.81544      .   S
    Zr5    O31       0.81543      .   S
    Zr13   O31       0.81543      .   S
    C40    O41       0.89623      .   S
    Zr6    O41       1.79452      .   S
    C40    O42       0.93527      .   S
    Zr0    O42       1.85495      .   S
    C40    O43       1.10258      .   S
    N37    O43       2.17363      .   S
    C44    O45       0.93451      .   S
    Zr6    O45       1.85483      .   S
    C44    O46       1.10263      .   S
    N39    O46       2.17374  1_565   S
    C44    O47       0.89701      .   S
    Zr1    O47       1.79498      .   S
    C48    O49       0.93507      .   S
    Zr7    O49       1.85537  1_655   S
    C48    O50       0.89639      .   S
    Zr0    O50       1.79421      .   S
    C48    O51       1.10265      .   S
    N33    O51       2.17372      .   S
    C52    O53       1.10261      .   S
    N32    O53       2.17366      .   S
    C52    O54       0.93505      .   S
    Zr0    O54       1.85520      .   S
    C52    O55       0.89671      .   S
    Zr6    O55       1.79499      .   S
    C56    O57       0.93500      .   S
    Zr6    O57       1.85522      .   S
    C56    O58       0.89635      .   S
    Zr1    O58       1.79410      .   S
    C56    O59       1.10267      .   S
    N38    O59       2.17374      .   S
    C60    O61       0.93498      .   S
    Zr1    O61       1.85507      .   S
    C60    O62       0.89665      .   S
    Zr7    O62       1.79491      .   S
    C60    O63       1.10248      .   S
    N34    O63       2.17387      .   S
    C64    O65       0.93460      .   S
    Zr7    O65       1.85477  1_655   S
    C64    O66       1.10274      .   S
    N35    O66       2.17390  1_565   S
    C64    O67       0.89687      .   S
    Zr0    O67       1.79473      .   S
    C68    O69       0.89623      .   S
    Zr7    O69       1.79450      .   S
    C68    O70       0.93530      .   S
    Zr1    O70       1.85503      .   S
    C68    O71       1.10258      .   S
    N36    O71       2.17357      .   S
    C72    O73       1.10267      .   S
    N33    O73       2.17379  1_545   S
    C72    O74       0.89693      .   S
    Zr2    O74       1.79480      .   S
    C72    O75       0.93438      .   S
    Zr4    O75       1.85414      .   S
    C76    O77       1.10267      .   S
    N38    O77       2.17379  1_545   S
    C76    O78       0.89692      .   S
    Zr3    O78       1.79473      .   S
    C76    O79       0.93446      .   S
    Zr5    O79       1.85448      .   S
    C80    O81       1.10269      .   S
    N32    O81       2.17382      .   S
    C80    O82       0.93531      .   S
    Zr3    O82       1.85528      .   S
    C80    O83       0.89618      .   S
    Zr4    O83       1.79411      .   S
    C84    O85       0.93511      .   S
    Zr4    O85       1.85561  1_556   S
    C84    O86       0.89641      .   S
    Zr2    O86       1.79432  1_556   S
    C84    O87       1.10274      .   S
    N35    O87       2.17389      .   S
    C88    O89       0.89671      .   S
    Zr4    O89       1.79522  1_556   S
    C88    O90       0.93504      .   S
    Zr3    O90       1.85498  1_556   S
    C88    O91       1.10253      .   S
    N37    O91       2.17347      .   S
    C92    O93       0.89661      .   S
    Zr5    O93       1.79486  1_556   S
    C92    O94       0.93509      .   S
    Zr2    O94       1.85508  1_456   S
    C92    O95       1.10251      .   S
    N36    O95       2.17358      .   S
    C96    O97       1.10274      .   S
    N39    O97       2.17388      .   S
    C96    O98       0.93503      .   S
    Zr5    O98       1.85522  1_556   S
    C96    O99       0.89639      .   S
    Zr3    O99       1.79436  1_556   S
    C100   O101      0.93542      .   S
    Zr2    O101      1.85551  1_455   S
    C100   O102      1.10274      .   S
    N34    O102      2.17391      .   S
    C100   O103      0.89628      .   S
    Zr5    O103      1.79451      .   S
