# CIF file generated by openbabel 2.4.90, see http://openbabel.sf.net
data_I
_chemical_name_common ''
_cell_length_a 16.563
_cell_length_b 16.569
_cell_length_c 16.571
_cell_angle_alpha 105.564
_cell_angle_beta 105.413
_cell_angle_gamma 105.367
_space_group_name_H-M_alt 'P 1'
_space_group_name_Hall 'P 1'
loop_
    _symmetry_equiv_pos_as_xyz
    x,y,z
loop_
    _atom_site_label
    _atom_site_type_symbol
    _atom_site_fract_x
    _atom_site_fract_y
    _atom_site_fract_z
    _atom_site_occupancy
    Zr0     Zr   0.56365   0.25050   0.93818   1.000
    Zr1     Zr   0.74939   0.43629   0.06201   1.000
    Zr2     Zr   0.93800   0.56346   0.25077   1.000
    Zr3     Zr   0.06199   0.74917   0.43644   1.000
    Zr4     Zr   0.25064   0.93789   0.56358   1.000
    Zr5     Zr   0.43628   0.06174   0.74942   1.000
    Zr6     Zr   0.43637   0.74957   0.06183   1.000
    Zr7     Zr   0.25063   0.56376   0.93801   1.000
    Zr8     Zr   0.06202   0.43659   0.74923   1.000
    Zr9     Zr   0.93802   0.25088   0.56356   1.000
    Zr10    Zr   0.74939   0.06221   0.43645   1.000
    Zr11    Zr   0.56373   0.93832   0.25059   1.000
    Zr12    Zr   0.73588   0.26401   0.99991   1.000
    Zr13    Zr   0.49989   0.23373   0.76617   1.000
    Zr14    Zr   0.99993   0.73567   0.26422   1.000
    Zr15    Zr   0.76605   0.50008   0.23408   1.000
    Zr16    Zr   0.26411   0.00000   0.73587   1.000
    Zr17    Zr   0.23397   0.76582   0.49979   1.000
    Zr18    Zr   0.26415   0.73605   0.00010   1.000
    Zr19    Zr   0.50015   0.76634   0.23384   1.000
    Zr20    Zr   0.00008   0.26438   0.73577   1.000
    Zr21    Zr   0.23395   0.49997   0.76593   1.000
    Zr22    Zr   0.73592   0.00006   0.26412   1.000
    Zr23    Zr   0.76605   0.23425   0.50022   1.000
    O24     O    0.25739   0.64991   0.96906   1.000
    O25     O    0.74263   0.35015   0.03096   1.000
    O26     O    0.53194   0.85233   0.24222   1.000
    O27     O    0.85203   0.53177   0.24243   1.000
    O28     O    0.64982   0.96919   0.25736   1.000
    O29     O    0.03096   0.74242   0.35033   1.000
    O30     O    0.14798   0.75750   0.46812   1.000
    O31     O    0.75772   0.14823   0.46834   1.000
    O32     O    0.96905   0.25763   0.64967   1.000
    O33     O    0.35020   0.03087   0.74265   1.000
    O34     O    0.14799   0.46828   0.75758   1.000
    O35     O    0.53177   0.24211   0.85218   1.000
    N36     N    0.50001   0.00003   1.00000   1.000
    O37     O    0.51930   0.09490   0.97132   1.000
    O38     O    0.48070   0.02866   0.90508   1.000
    O39     O    0.48073   0.90515   0.02868   1.000
    O40     O    0.51932   0.97139   0.09492   1.000
    N41     N    0.50001   0.50003   1.00000   1.000
    O42     O    0.59453   0.47074   0.01833   1.000
    O43     O    0.52925   0.40545   0.98174   1.000
    O44     O    0.40549   0.52932   0.98166   1.000
    O45     O    0.47078   0.59461   0.01826   1.000
    N46     N    0.00001   0.50003   1.00000   1.000
    O47     O    0.02876   0.48083   0.90503   1.000
    O48     O    0.09494   0.51936   0.97125   1.000
    O49     O    0.97125   0.51922   0.09497   1.000
    O50     O    0.90507   0.48069   0.02875   1.000
    N51     N    0.00001   0.50002   0.50000   1.000
    O52     O    0.98168   0.40558   0.52919   1.000
    O53     O    0.01834   0.47089   0.59448   1.000
    O54     O    0.01834   0.59447   0.47081   1.000
    O55     O    0.98168   0.52916   0.40551   1.000
    N56     N    0.00001   0.00003   0.49998   1.000
    O57     O    0.09494   0.97122   0.51926   1.000
    O58     O    0.02876   0.90503   0.48075   1.000
    O59     O    0.90508   0.02884   0.48073   1.000
    O60     O    0.97126   0.09503   0.51923   1.000
    N61     N    0.50001   0.00003   0.49999   1.000
    O62     O    0.47074   0.01823   0.59452   1.000
    O63     O    0.40548   0.98163   0.52919   1.000
    O64     O    0.52928   0.98182   0.40547   1.000
    O65     O    0.59455   0.01844   0.47079   1.000
loop_
    _geom_bond_atom_site_label_1
    _geom_bond_atom_site_label_2
    _geom_bond_distance
    _geom_bond_site_symmetry_2
    _ccdc_geom_bond_type
    Zr18   O24       1.34356  1_554   S
    Zr7    O24       1.34356      .   S
    Zr1    O25       1.34350      .   S
    Zr12   O25       1.34350  1_556   S
    Zr19   O26       1.33560      .   S
    Zr11   O26       1.33560      .   S
    Zr15   O27       1.33516      .   S
    Zr2    O27       1.33516      .   S
    Zr11   O28       1.34360      .   S
    Zr22   O28       1.34360  1_545   S
    Zr14   O29       1.34418  1_655   S
    Zr3    O29       1.34418      .   S
    Zr3    O30       1.33514      .   S
    Zr17   O30       1.33514      .   S
    Zr10   O31       1.33508      .   S
    Zr23   O31       1.33508      .   S
    Zr9    O32       1.34411      .   S
    Zr20   O32       1.34411  1_455   S
    Zr16   O33       1.34346      .   S
    Zr5    O33       1.34346      .   S
    Zr8    O34       1.33506      .   S
    Zr21   O34       1.33506      .   S
    Zr13   O35       1.33573      .   S
    Zr0    O35       1.33573      .   S
    N36    O37       1.73621      .   S
    Zr0    O37       2.73094      .   S
    N36    O38       1.73627      .   S
    Zr5    O38       2.73112      .   S
    N36    O39       1.73621  1_546   S
    Zr6    O39       2.73094      .   S
    N36    O40       1.73634  1_546   S
    Zr11   O40       2.73126      .   S
    N41    O42       1.73430  1_556   S
    Zr1    O42       2.72745      .   S
    N41    O43       1.73414      .   S
    Zr0    O43       2.72706      .   S
    N41    O44       1.73432      .   S
    Zr7    O44       2.72741      .   S
    N41    O45       1.73418  1_556   S
    Zr6    O45       2.72716      .   S
    N46    O47       1.73625      .   S
    Zr8    O47       2.73137      .   S
    N46    O48       1.73637      .   S
    Zr7    O48       2.73151      .   S
    N46    O49       1.73635  1_456   S
    Zr2    O49       2.73140      .   S
    N46    O50       1.73647  1_456   S
    Zr1    O50       2.73164      .   S
    N51    O52       1.73423  1_455   S
    Zr9    O52       2.72715      .   S
    N51    O53       1.73415      .   S
    Zr8    O53       2.72688      .   S
    N51    O54       1.73420      .   S
    Zr3    O54       2.72714      .   S
    N51    O55       1.73410  1_455   S
    Zr2    O55       2.72687      .   S
    N56    O57       1.73629  1_545   S
    Zr4    O57       2.73147      .   S
    N56    O58       1.73629  1_545   S
    Zr3    O58       2.73157      .   S
    N56    O59       1.73634  1_455   S
    Zr10   O59       2.73154      .   S
    N56    O60       1.73629  1_455   S
    Zr9    O60       2.73157      .   S
    N61    O62       1.73421      .   S
    Zr5    O62       2.72720      .   S
    N61    O63       1.73424  1_545   S
    Zr4    O63       2.72768      .   S
    N61    O64       1.73400  1_545   S
    Zr11   O64       2.72689      .   S
    N61    O65       1.73429      .   S
    Zr10   O65       2.72733      .   S
