# CIF file generated by openbabel 2.4.90, see http://openbabel.sf.net
data_I
_chemical_name_common ''
_cell_length_a 20.196
_cell_length_b 23.101
_cell_length_c 14.88
_cell_angle_alpha 91.161
_cell_angle_beta 90
_cell_angle_gamma 89.958
_space_group_name_H-M_alt 'P 1'
_space_group_name_Hall 'P 1'
loop_
    _symmetry_equiv_pos_as_xyz
    x,y,z
loop_
    _atom_site_label
    _atom_site_type_symbol
    _atom_site_fract_x
    _atom_site_fract_y
    _atom_site_fract_z
    _atom_site_occupancy
    Zn0     Zn   0.46400   0.87747   0.12960   1.000
    Zn1     Zn   0.96400   0.37747   0.12960   1.000
    Zn2     Zn   0.96400   0.87747   0.12960   1.000
    Zn3     Zn   0.05862   0.37023   0.30800   1.000
    Zn4     Zn   0.05862   0.87023   0.30800   1.000
    Zn5     Zn   0.55862   0.37023   0.30800   1.000
    Zn6     Zn   0.55863   0.87023   0.30800   1.000
    Zn7     Zn   0.21399   0.37255   0.37035   1.000
    Zn8     Zn   0.21399   0.87254   0.37035   1.000
    Zn9     Zn   0.71399   0.37255   0.37035   1.000
    Zn10    Zn   0.71400   0.87254   0.37035   1.000
    Zn11    Zn   0.30861   0.37979   0.19126   1.000
    Zn12    Zn   0.30862   0.87979   0.19126   1.000
    Zn13    Zn   0.80862   0.37979   0.19126   1.000
    Zn14    Zn   0.80862   0.87979   0.19126   1.000
    Zn15    Zn   0.03602   0.12252   0.87035   1.000
    Zn16    Zn   0.03602   0.62252   0.87035   1.000
    Zn17    Zn   0.53602   0.12252   0.87035   1.000
    Zn18    Zn   0.53603   0.62252   0.87035   1.000
    Zn19    Zn   0.44139   0.12976   0.69128   1.000
    Zn20    Zn   0.44139   0.62976   0.69128   1.000
    Zn21    Zn   0.94139   0.12976   0.69128   1.000
    Zn22    Zn   0.94140   0.62976   0.69128   1.000
    Zn23    Zn   0.28602   0.12745   0.62962   1.000
    Zn24    Zn   0.28603   0.62744   0.62962   1.000
    Zn25    Zn   0.78603   0.12745   0.62962   1.000
    Zn26    Zn   0.78603   0.62744   0.62962   1.000
    Zn27    Zn   0.19139   0.12020   0.80871   1.000
    Zn28    Zn   0.19140   0.62020   0.80871   1.000
    Zn29    Zn   0.69140   0.12020   0.80871   1.000
    Zn30    Zn   0.69140   0.62020   0.80871   1.000
    Zn31    Zn   0.00000   0.25000   0.00000   1.000
    Zn32    Zn   0.46399   0.37747   0.12960   1.000
    Zn33    Zn   0.00001   0.74999   0.00000   1.000
    Zn34    Zn   0.50001   0.25000   0.00000   1.000
    Zn35    Zn   0.50001   0.74999   0.00000   1.000
    Zn36    Zn   0.25000   1.00000   0.49999   1.000
    Zn37    Zn   0.25001   0.49999   0.49999   1.000
    Zn38    Zn   0.75001   1.00000   0.49999   1.000
    Zn39    Zn   0.75001   0.49999   0.49999   1.000
    Zn40    Zn   0.00000   0.00000   0.00000   1.000
    Zn41    Zn   0.00000   0.50000   0.00000   1.000
    Zn42    Zn   0.50000   0.00000   0.00000   1.000
    Zn43    Zn   0.50001   0.50000   0.00000   1.000
    Zn44    Zn   0.25000   0.25000   0.49999   1.000
    Zn45    Zn   0.25001   0.74999   0.49999   1.000
    Zn46    Zn   0.75001   0.25000   0.49999   1.000
    Zn47    Zn   0.75001   0.74999   0.49999   1.000
