# CIF file generated by openbabel 2.4.90, see http://openbabel.sf.net
data_I
_chemical_name_common ''
_cell_length_a 23.173
_cell_length_b 23.132
_cell_length_c 22.876
_cell_angle_alpha 89.923
_cell_angle_beta 90.038
_cell_angle_gamma 119.768
_space_group_name_H-M_alt 'P 1'
_space_group_name_Hall 'P 1'
loop_
    _symmetry_equiv_pos_as_xyz
    x,y,z
loop_
    _atom_site_label
    _atom_site_type_symbol
    _atom_site_fract_x
    _atom_site_fract_y
    _atom_site_fract_z
    _atom_site_occupancy
    Cd0     Cd   0.26104   0.88082   0.91684   1.000
    Cd1     Cd   0.76103   0.38083   0.91684   1.000
    Cd2     Cd   0.76103   0.88082   0.91684   1.000
    Cd3     Cd   0.11890   0.23864   0.58320   1.000
    Cd4     Cd   0.11890   0.73863   0.58321   1.000
    Cd5     Cd   0.61889   0.23864   0.58320   1.000
    Cd6     Cd   0.61889   0.73863   0.58321   1.000
    Cd7     Cd   0.11929   0.38063   0.25002   1.000
    Cd8     Cd   0.11929   0.88062   0.25002   1.000
    Cd9     Cd   0.61928   0.38063   0.25002   1.000
    Cd10    Cd   0.61928   0.88062   0.25002   1.000
    Cd11    Cd   0.23876   0.11903   0.41682   1.000
    Cd12    Cd   0.23876   0.61902   0.41682   1.000
    Cd13    Cd   0.73875   0.11903   0.41682   1.000
    Cd14    Cd   0.73875   0.61902   0.41682   1.000
    Cd15    Cd   0.38118   0.26124   0.08330   1.000
    Cd16    Cd   0.38118   0.76123   0.08330   1.000
    Cd17    Cd   0.88117   0.26124   0.08330   1.000
    Cd18    Cd   0.88117   0.76123   0.08330   1.000
    Cd19    Cd   0.38079   0.11952   0.74997   1.000
    Cd20    Cd   0.38079   0.61951   0.74997   1.000
    Cd21    Cd   0.88078   0.11952   0.74997   1.000
    Cd22    Cd   0.88078   0.61951   0.74997   1.000
    Cd23    Cd   0.26104   0.38083   0.91680   1.000
    Ts24    Ts   0.25679   0.85397   0.89259   1.000
    Ts25    Ts   0.25645   0.90336   0.94092   1.000
    Ts26    Ts   0.29106   0.87534   0.92695   1.000
    Ts27    Ts   0.25997   0.86040   0.94456   1.000
    Ts28    Ts   0.29103   0.91621   0.90677   1.000
    Ts29    Ts   0.25991   0.90020   0.88879   1.000
    Ts30    Ts   0.75678   0.35398   0.89259   1.000
    Ts31    Ts   0.75643   0.40337   0.94092   1.000
    Ts32    Ts   0.79105   0.37535   0.92695   1.000
    Ts33    Ts   0.75996   0.36041   0.94456   1.000
    Ts34    Ts   0.79102   0.41622   0.90677   1.000
    Ts35    Ts   0.75990   0.40021   0.88879   1.000
    Ts36    Ts   0.75678   0.85397   0.89259   1.000
    Ts37    Ts   0.75644   0.90336   0.94092   1.000
    Ts38    Ts   0.79105   0.87534   0.92695   1.000
    Ts39    Ts   0.75996   0.86040   0.94456   1.000
    Ts40    Ts   0.79102   0.91621   0.90677   1.000
    Ts41    Ts   0.75990   0.90020   0.88879   1.000
    Ts42    Ts   0.09641   0.24321   0.55904   1.000
    Ts43    Ts   0.14561   0.24275   0.60752   1.000
    Ts44    Ts   0.08361   0.20865   0.59334   1.000
    Ts45    Ts   0.09960   0.23989   0.61121   1.000
    Ts46    Ts   0.12429   0.20853   0.57303   1.000
    Ts47    Ts   0.13947   0.23984   0.55523   1.000
    Ts48    Ts   0.09641   0.74320   0.55904   1.000
    Ts49    Ts   0.14561   0.74275   0.60752   1.000
    Ts50    Ts   0.08361   0.70864   0.59335   1.000
    Ts51    Ts   0.09960   0.73988   0.61121   1.000
    Ts52    Ts   0.12429   0.70852   0.57306   1.000
    Ts53    Ts   0.13947   0.73983   0.55524   1.000
    Ts54    Ts   0.59640   0.24321   0.55904   1.000
    Ts55    Ts   0.64560   0.24276   0.60752   1.000
    Ts56    Ts   0.58360   0.20865   0.59334   1.000
    Ts57    Ts   0.59959   0.23989   0.61121   1.000
    Ts58    Ts   0.62428   0.20853   0.57303   1.000
    Ts59    Ts   0.63945   0.23984   0.55523   1.000
    Ts60    Ts   0.59640   0.74320   0.55904   1.000
    Ts61    Ts   0.64560   0.74275   0.60752   1.000
    Ts62    Ts   0.58360   0.70864   0.59335   1.000
    Ts63    Ts   0.59959   0.73988   0.61121   1.000
    Ts64    Ts   0.62428   0.70852   0.57306   1.000
    Ts65    Ts   0.63946   0.73983   0.55524   1.000
    Ts66    Ts   0.14599   0.40324   0.22576   1.000
    Ts67    Ts   0.13928   0.36061   0.24997   1.000
    Ts68    Ts   0.12466   0.41602   0.26025   1.000
    Ts69    Ts   0.13973   0.39972   0.27814   1.000
    Ts70    Ts   0.08401   0.37533   0.23971   1.000
    Ts71    Ts   0.10020   0.36015   0.22189   1.000
    Ts72    Ts   0.14599   0.90323   0.22576   1.000
    Ts73    Ts   0.13928   0.86060   0.24997   1.000
    Ts74    Ts   0.12466   0.91601   0.26025   1.000
    Ts75    Ts   0.13973   0.89971   0.27814   1.000
    Ts76    Ts   0.08401   0.87532   0.23971   1.000
    Ts77    Ts   0.10020   0.86014   0.22189   1.000
    Ts78    Ts   0.64598   0.40325   0.22576   1.000
    Ts79    Ts   0.63927   0.36061   0.24997   1.000
    Ts80    Ts   0.62465   0.41602   0.26025   1.000
    Ts81    Ts   0.63972   0.39972   0.27814   1.000
    Ts82    Ts   0.58400   0.37533   0.23971   1.000
    Ts83    Ts   0.60019   0.36015   0.22189   1.000
    Ts84    Ts   0.64598   0.90323   0.22576   1.000
    Ts85    Ts   0.63927   0.86060   0.24997   1.000
    Ts86    Ts   0.62465   0.91601   0.26025   1.000
    Ts87    Ts   0.63972   0.89971   0.27814   1.000
    Ts88    Ts   0.58400   0.87532   0.23971   1.000
    Ts89    Ts   0.60019   0.86014   0.22189   1.000
    Ts90    Ts   0.24305   0.14592   0.39259   1.000
    Ts91    Ts   0.24338   0.09648   0.44091   1.000
    Ts92    Ts   0.20872   0.12446   0.42695   1.000
    Ts93    Ts   0.23985   0.13945   0.44489   1.000
    Ts94    Ts   0.20875   0.08369   0.40671   1.000
    Ts95    Ts   0.23991   0.09970   0.38878   1.000
    Ts96    Ts   0.24305   0.64591   0.39259   1.000
    Ts97    Ts   0.24338   0.59647   0.44091   1.000
    Ts98    Ts   0.20872   0.62446   0.42695   1.000
    Ts99    Ts   0.23985   0.63944   0.44489   1.000
    Ts100   Ts   0.20875   0.58368   0.40671   1.000
    Ts101   Ts   0.23991   0.59969   0.38878   1.000
    Ts102   Ts   0.74304   0.14592   0.39259   1.000
    Ts103   Ts   0.74337   0.09648   0.44091   1.000
    Ts104   Ts   0.70871   0.12446   0.42695   1.000
    Ts105   Ts   0.73984   0.13945   0.44489   1.000
    Ts106   Ts   0.70874   0.08369   0.40671   1.000
    Ts107   Ts   0.73990   0.09970   0.38878   1.000
    Ts108   Ts   0.74304   0.64591   0.39259   1.000
    Ts109   Ts   0.74337   0.59647   0.44091   1.000
    Ts110   Ts   0.70871   0.62446   0.42695   1.000
    Ts111   Ts   0.73984   0.63943   0.44489   1.000
    Ts112   Ts   0.70874   0.58368   0.40671   1.000
    Ts113   Ts   0.73990   0.59969   0.38878   1.000
    Ts114   Ts   0.40365   0.25677   0.05908   1.000
    Ts115   Ts   0.36129   0.22129   0.08343   1.000
    Ts116   Ts   0.41651   0.29126   0.09331   1.000
    Ts117   Ts   0.40051   0.26006   0.11120   1.000
    Ts118   Ts   0.37575   0.29133   0.07310   1.000
    Ts119   Ts   0.36052   0.26001   0.05540   1.000
    Ts120   Ts   0.40365   0.75676   0.05908   1.000
    Ts121   Ts   0.36129   0.72129   0.08343   1.000
    Ts122   Ts   0.41651   0.79125   0.09331   1.000
    Ts123   Ts   0.40051   0.76005   0.11120   1.000
    Ts124   Ts   0.37575   0.79132   0.07310   1.000
    Ts125   Ts   0.36052   0.76000   0.05537   1.000
    Ts126   Ts   0.90364   0.25677   0.05908   1.000
    Ts127   Ts   0.86128   0.22129   0.08343   1.000
    Ts128   Ts   0.91650   0.29126   0.09331   1.000
    Ts129   Ts   0.90050   0.26006   0.11120   1.000
    Ts130   Ts   0.87574   0.29133   0.07310   1.000
    Ts131   Ts   0.86051   0.26001   0.05539   1.000
    Ts132   Ts   0.90364   0.75676   0.05908   1.000
    Ts133   Ts   0.86128   0.72128   0.08343   1.000
    Ts134   Ts   0.91650   0.79125   0.09331   1.000
    Ts135   Ts   0.90050   0.76005   0.11120   1.000
    Ts136   Ts   0.87574   0.79132   0.07310   1.000
    Ts137   Ts   0.86051   0.76000   0.05539   1.000
    Ts138   Ts   0.40341   0.14625   0.77420   1.000
    Ts139   Ts   0.36090   0.13963   0.74994   1.000
    Ts140   Ts   0.37538   0.08413   0.76027   1.000
    Ts141   Ts   0.36024   0.10037   0.77806   1.000
    Ts142   Ts   0.41610   0.12483   0.73976   1.000
    Ts143   Ts   0.39989   0.13994   0.72183   1.000
    Ts144   Ts   0.40341   0.64624   0.77418   1.000
    Ts145   Ts   0.36090   0.63962   0.74994   1.000
    Ts146   Ts   0.37538   0.58412   0.76027   1.000
    Ts147   Ts   0.36024   0.60036   0.77806   1.000
    Ts148   Ts   0.41610   0.62482   0.73976   1.000
    Ts149   Ts   0.39989   0.63993   0.72183   1.000
    Ts150   Ts   0.90340   0.14625   0.77420   1.000
    Ts151   Ts   0.86089   0.13964   0.74994   1.000
    Ts152   Ts   0.87537   0.08413   0.76027   1.000
    Ts153   Ts   0.86022   0.10037   0.77806   1.000
    Ts154   Ts   0.91609   0.12483   0.73976   1.000
    Ts155   Ts   0.89988   0.13995   0.72183   1.000
    Ts156   Ts   0.90340   0.64624   0.77420   1.000
    Ts157   Ts   0.86089   0.63963   0.74994   1.000
    Ts158   Ts   0.87537   0.58412   0.76027   1.000
    Ts159   Ts   0.86023   0.60036   0.77806   1.000
    Ts160   Ts   0.91609   0.62482   0.73976   1.000
    Ts161   Ts   0.89988   0.63994   0.72183   1.000
    Ts162   Ts   0.25679   0.35398   0.89257   1.000
    Ts163   Ts   0.25644   0.40337   0.94089   1.000
    Ts164   Ts   0.29106   0.37535   0.92693   1.000
    Ts165   Ts   0.25997   0.36041   0.94453   1.000
    Ts166   Ts   0.29103   0.41622   0.90675   1.000
    Ts167   Ts   0.25991   0.40021   0.88876   1.000
loop_
    _geom_bond_atom_site_label_1
    _geom_bond_atom_site_label_2
    _geom_bond_distance
    _geom_bond_site_symmetry_2
    _ccdc_geom_bond_type
    Cd0    Ts24      0.80205      .   S
    Cd0    Ts25      0.80166      .   S
    Cd0    Ts26      0.80043      .   S
    Cd0    Ts27      0.78320      .   S
    Cd0    Ts28      0.80062      .   S
    Cd0    Ts29      0.79007      .   S
    Cd1    Ts30      0.80204      .   S
    Cd1    Ts31      0.80166      .   S
    Cd1    Ts32      0.80042      .   S
    Cd1    Ts33      0.78320      .   S
    Cd1    Ts34      0.80062      .   S
    Cd1    Ts35      0.79007      .   S
    Cd2    Ts36      0.80204      .   S
    Cd2    Ts37      0.80166      .   S
    Cd2    Ts38      0.80043      .   S
    Cd2    Ts39      0.78321      .   S
    Cd2    Ts40      0.80062      .   S
    Cd2    Ts41      0.79007      .   S
    Cd3    Ts42      0.80168      .   S
    Cd3    Ts43      0.80171      .   S
    Cd3    Ts44      0.80018      .   S
    Cd3    Ts45      0.79042      .   S
    Cd3    Ts46      0.80093      .   S
    Cd3    Ts47      0.79016      .   S
    Cd4    Ts48      0.80173      .   S
    Cd4    Ts49      0.80166      .   S
    Cd4    Ts50      0.80016      .   S
    Cd4    Ts51      0.79036      .   S
    Cd4    Ts52      0.80079      .   S
    Cd4    Ts53      0.79016      .   S
    Cd5    Ts54      0.80169      .   S
    Cd5    Ts55      0.80171      .   S
    Cd5    Ts56      0.80019      .   S
    Cd5    Ts57      0.79042      .   S
    Cd5    Ts58      0.80092      .   S
    Cd5    Ts59      0.79014      .   S
    Cd6    Ts60      0.80172      .   S
    Cd6    Ts61      0.80166      .   S
    Cd6    Ts62      0.80016      .   S
    Cd6    Ts63      0.79036      .   S
    Cd6    Ts64      0.80080      .   S
    Cd6    Ts65      0.79018      .   S
    Cd7    Ts66      0.80173      .   S
    Cd7    Ts67      0.80140      .   S
    Cd7    Ts68      0.79977      .   S
    Cd7    Ts69      0.79117      .   S
    Cd7    Ts70      0.79951      .   S
    Cd7    Ts71      0.79143      .   S
    Cd8    Ts72      0.80173      .   S
    Cd8    Ts73      0.80140      .   S
    Cd8    Ts74      0.79977      .   S
    Cd8    Ts75      0.79117      .   S
    Cd8    Ts76      0.79951      .   S
    Cd8    Ts77      0.79142      .   S
    Cd9    Ts78      0.80173      .   S
    Cd9    Ts79      0.80140      .   S
    Cd9    Ts80      0.79977      .   S
    Cd9    Ts81      0.79117      .   S
    Cd9    Ts82      0.79951      .   S
    Cd9    Ts83      0.79143      .   S
    Cd10   Ts84      0.80174      .   S
    Cd10   Ts85      0.80140      .   S
    Cd10   Ts86      0.79976      .   S
    Cd10   Ts87      0.79117      .   S
    Cd10   Ts88      0.79951      .   S
    Cd10   Ts89      0.79142      .   S
    Cd11   Ts90      0.80124      .   S
    Cd11   Ts91      0.80098      .   S
    Cd11   Ts92      0.80080      .   S
    Cd11   Ts93      0.79055      .   S
    Cd11   Ts94      0.80075      .   S
    Cd11   Ts95      0.79045      .   S
    Cd12   Ts96      0.80123      .   S
    Cd12   Ts97      0.80099      .   S
    Cd12   Ts98      0.80079      .   S
    Cd12   Ts99      0.79053      .   S
    Cd12   Ts100     0.80075      .   S
    Cd12   Ts101     0.79045      .   S
    Cd13   Ts102     0.80123      .   S
    Cd13   Ts103     0.80097      .   S
    Cd13   Ts104     0.80081      .   S
    Cd13   Ts105     0.79050      .   S
    Cd13   Ts106     0.80075      .   S
    Cd13   Ts107     0.79045      .   S
    Cd14   Ts108     0.80124      .   S
    Cd14   Ts109     0.80100      .   S
    Cd14   Ts110     0.80079      .   S
    Cd14   Ts111     0.79058      .   S
    Cd14   Ts112     0.80075      .   S
    Cd14   Ts113     0.79044      .   S
    Cd15   Ts114     0.80180      .   S
    Cd15   Ts115     0.80216      .   S
    Cd15   Ts116     0.80039      .   S
    Cd15   Ts117     0.78769      .   S
    Cd15   Ts118     0.80073      .   S
    Cd15   Ts119     0.78968      .   S
    Cd16   Ts120     0.80181      .   S
    Cd16   Ts121     0.80216      .   S
    Cd16   Ts122     0.80039      .   S
    Cd16   Ts123     0.78770      .   S
    Cd16   Ts124     0.80072      .   S
    Cd16   Ts125     0.79022      .   S
    Cd17   Ts126     0.80180      .   S
    Cd17   Ts127     0.80216      .   S
    Cd17   Ts128     0.80039      .   S
    Cd17   Ts129     0.78769      .   S
    Cd17   Ts130     0.80072      .   S
    Cd17   Ts131     0.78972      .   S
    Cd18   Ts132     0.80181      .   S
    Cd18   Ts133     0.80216      .   S
    Cd18   Ts134     0.80040      .   S
    Cd18   Ts135     0.78770      .   S
    Cd18   Ts136     0.80072      .   S
    Cd18   Ts137     0.78972      .   S
    Cd19   Ts138     0.80200      .   S
    Cd19   Ts139     0.80108      .   S
    Cd19   Ts140     0.79937      .   S
    Cd19   Ts141     0.79119      .   S
    Cd19   Ts142     0.79979      .   S
    Cd19   Ts143     0.79086      .   S
    Cd20   Ts144     0.80163      .   S
    Cd20   Ts145     0.80108      .   S
    Cd20   Ts146     0.79937      .   S
    Cd20   Ts147     0.79119      .   S
    Cd20   Ts148     0.79979      .   S
    Cd20   Ts149     0.79086      .   S
    Cd21   Ts150     0.80199      .   S
    Cd21   Ts151     0.80107      .   S
    Cd21   Ts152     0.79937      .   S
    Cd21   Ts153     0.79119      .   S
    Cd21   Ts154     0.79979      .   S
    Cd21   Ts155     0.79086      .   S
    Cd22   Ts156     0.80200      .   S
    Cd22   Ts157     0.80108      .   S
    Cd22   Ts158     0.79937      .   S
    Cd22   Ts159     0.79119      .   S
    Cd22   Ts160     0.79980      .   S
    Cd22   Ts161     0.79086      .   S
    Cd23   Ts162     0.80183      .   S
    Cd23   Ts163     0.80188      .   S
    Cd23   Ts164     0.80051      .   S
    Cd23   Ts165     0.78343      .   S
    Cd23   Ts166     0.80054      .   S
    Cd23   Ts167     0.78982      .   S
