# CIF file generated by openbabel 2.4.90, see http://openbabel.sf.net
data_I
_chemical_name_common ''
_cell_length_a 13.971
_cell_length_b 15.661
_cell_length_c 19.606
_cell_angle_alpha 89.992
_cell_angle_beta 90.005
_cell_angle_gamma 90.014
_space_group_name_H-M_alt 'P 1'
_space_group_name_Hall 'P 1'
loop_
    _symmetry_equiv_pos_as_xyz
    x,y,z
loop_
    _atom_site_label
    _atom_site_type_symbol
    _atom_site_fract_x
    _atom_site_fract_y
    _atom_site_fract_z
    _atom_site_occupancy
    N0      N    0.80596   0.75412   0.34915   1.000
    N1      N    0.19399   0.25340   0.15079   1.000
    N2      N    0.07668   0.30159   0.59042   1.000
    N3      N    0.92353   0.80090   0.90949   1.000
    N4      N    0.57609   0.19925   0.40938   1.000
    N5      N    0.69397   0.24595   0.84891   1.000
    N6      N    0.30602   0.74599   0.65081   1.000
    N7      N    0.42384   0.69892   0.09059   1.000
    Zr8     Zr   0.69089   0.86001   0.02850   1.000
    O9      O    0.77024   0.84810   0.99575   1.000
    O10     O    0.72116   0.82840   0.12318   1.000
    Zr11    Zr   0.80967   0.14076   0.52817   1.000
    O12     O    0.73005   0.15246   0.49550   1.000
    O13     O    0.77922   0.17211   0.62289   1.000
    Zr14    Zr   0.30922   0.36028   0.47142   1.000
    O15     O    0.27890   0.32843   0.37675   1.000
    O16     O    0.22991   0.34854   0.50417   1.000
    Zr17    Zr   0.19068   0.63984   0.97150   1.000
    O18     O    0.22099   0.67150   0.87682   1.000
    O19     O    0.27016   0.65173   0.00428   1.000
    O20     O    0.11361   0.69302   0.96126   1.000
    O21     O    0.18512   0.52740   0.01946   1.000
    O22     O    0.81507   0.02815   0.48031   1.000
    O23     O    0.88660   0.19404   0.53849   1.000
    O24     O    0.38625   0.30712   0.46117   1.000
    O25     O    0.31481   0.47254   0.51943   1.000
    O26     O    0.68528   0.97233   0.98043   1.000
    O27     O    0.61380   0.80682   0.03880   1.000
loop_
    _geom_bond_atom_site_label_1
    _geom_bond_atom_site_label_2
    _geom_bond_distance
    _geom_bond_site_symmetry_2
    _ccdc_geom_bond_type
    Zr8    O9        1.29476  1_554   S
    N3     O9        2.82743      .   S
    Zr8    O10       1.96709      .   S
    N0     O10       4.73108      .   S
    Zr11   O12       1.29653      .   S
    N4     O12       2.83096      .   S
    Zr11   O13       1.96747      .   S
    N5     O13       4.73239      .   S
    Zr14   O15       1.96807      .   S
    N1     O15       4.73437      .   S
    Zr14   O16       1.29368      .   S
    N2     O16       2.82534      .   S
    Zr17   O18       1.96747      .   S
    N6     O18       4.73343      .   S
    Zr17   O19       1.29633  1_556   S
    N7     O19       2.83170      .   S
    Zr17   O20       1.37612      .   S
    N3     O20       3.30728  1_655   S
    Zr17   O21       1.99777  1_556   S
    N1     O21       5.00557      .   S
    Zr11   O22       1.99926      .   S
    N0     O22       5.00496  1_565   S
    Zr11   O23       1.37558      .   S
    N2     O23       3.30497  1_455   S
    Zr14   O24       1.37563      .   S
    N4     O24       3.30496      .   S
    Zr14   O25       1.99582      .   S
    N6     O25       4.99944      .   S
    N5     O26       5.00235  1_545   S
    Zr8    O26       1.99705  1_554   S
    N7     O27       3.30568      .   S
    Zr8    O27       1.37631      .   S
