# CIF file generated by openbabel 2.4.90, see http://openbabel.sf.net
data_I
_chemical_name_common ''
_cell_length_a 5.945
_cell_length_b 7.474
_cell_length_c 15.5861
_cell_angle_alpha 89.787
_cell_angle_beta 86.3205
_cell_angle_gamma 89.557
_space_group_name_H-M_alt 'P 1'
_space_group_name_Hall 'P 1'
loop_
    _symmetry_equiv_pos_as_xyz
    x,y,z
loop_
    _atom_site_label
    _atom_site_type_symbol
    _atom_site_fract_x
    _atom_site_fract_y
    _atom_site_fract_z
    _atom_site_occupancy
    C0      C    0.74925   0.00013   0.75021   1.000
    C1      C    0.25069   0.01549   0.24982   1.000
    C2      C    0.25001   0.39880   0.74992   1.000
    C3      C    0.74998   0.61682   0.25011   1.000
    C4      C    0.93323   0.18567   0.47878   1.000
    C5      C    0.56931   0.18562   0.02333   1.000
    C6      C    0.43064   0.82999   0.97670   1.000
    C7      C    0.06671   0.82995   0.52126   1.000
    C8      C    0.96141   0.32767   0.48843   1.000
    C9      C    0.54001   0.32768   0.01277   1.000
    C10     C    0.54497   0.39462   0.92881   1.000
    C11     C    0.00680   0.43578   0.41591   1.000
    C12     C    0.50506   0.57853   0.91536   1.000
    C13     C    0.04529   0.61953   0.42817   1.000
    C14     C    0.52593   0.66850   0.82829   1.000
    C15     C    0.08463   0.75323   0.35681   1.000
    C16     C    0.58423   0.25953   0.85832   1.000
    C17     C    0.02855   0.34537   0.32932   1.000
    C18     C    0.45993   0.68793   0.98727   1.000
    C19     C    0.03853   0.68794   0.51160   1.000
    C20     C    0.99315   0.57983   0.58413   1.000
    C21     C    0.45497   0.62099   0.07123   1.000
    C22     C    0.95465   0.39609   0.57187   1.000
    C23     C    0.49488   0.43709   0.08468   1.000
    C24     C    0.91532   0.26239   0.64322   1.000
    C25     C    0.47402   0.34712   0.17175   1.000
    C26     C    0.97139   0.67024   0.67071   1.000
    C27     C    0.41572   0.75608   0.14172   1.000
    C28     C    0.77291   0.17994   0.84980   1.000
    C29     C    0.09135   0.18281   0.33196   1.000
    C30     C    0.41946   0.21838   0.81283   1.000
    C31     C    0.98936   0.42879   0.26019   1.000
    C32     C    0.58814   0.83034   0.83033   1.000
    C33     C    0.27401   0.82933   0.34748   1.000
    C34     C    0.48664   0.58577   0.75941   1.000
    C35     C    0.91904   0.79699   0.31176   1.000
    C36     C    0.90859   0.83280   0.66808   1.000
    C37     C    0.22703   0.83568   0.15024   1.000
    C38     C    0.01060   0.58683   0.73984   1.000
    C39     C    0.58049   0.79724   0.18720   1.000
    C40     C    0.72594   0.18628   0.65256   1.000
    C41     C    0.41181   0.18528   0.16970   1.000
    C42     C    0.08091   0.21863   0.68827   1.000
    C43     C    0.51332   0.42985   0.24063   1.000
    O44     O    0.55466   0.25665   0.01805   1.000
    O45     O    0.51745   0.38239   0.04873   1.000
    O46     O    0.54249   0.36115   0.97079   1.000
    O47     O    0.47493   0.52904   0.07796   1.000
    O48     O    0.43535   0.68854   0.10647   1.000
    O49     O    0.45745   0.65446   0.02925   1.000
    O50     O    0.48445   0.39211   0.12821   1.000
    O51     O    0.32138   0.79588   0.14598   1.000
    O52     O    0.49810   0.77666   0.16446   1.000
    O53     O    0.23886   0.92558   0.20003   1.000
    O54     O    0.44291   0.26620   0.17073   1.000
    O55     O    0.33125   0.10038   0.20976   1.000
    O56     O    0.49367   0.38849   0.20619   1.000
    O57     O    0.66523   0.70703   0.21865   1.000
    O58     O    0.63165   0.52333   0.24537   1.000
    O59     O    0.17102   0.09915   0.29089   1.000
    O60     O    0.26235   0.92241   0.29865   1.000
    O61     O    0.86967   0.52281   0.25515   1.000
    O62     O    0.83451   0.70690   0.28093   1.000
    O63     O    0.00896   0.38708   0.29476   1.000
    O64     O    0.00183   0.77511   0.33429   1.000
    O65     O    0.05995   0.26409   0.33064   1.000
    O66     O    0.01768   0.39058   0.37262   1.000
    O67     O    0.17932   0.79128   0.35215   1.000
    O68     O    0.06496   0.68638   0.39249   1.000
    O69     O    0.02604   0.52766   0.42204   1.000
    O70     O    0.98410   0.38173   0.45217   1.000
    O71     O    0.04191   0.65374   0.46988   1.000
    O72     O    0.94732   0.25667   0.48361   1.000
    O73     O    0.95803   0.36188   0.53015   1.000
    O74     O    0.05262   0.75895   0.51643   1.000
    O75     O    0.01584   0.63389   0.54786   1.000
    O76     O    0.97390   0.48796   0.57800   1.000
    O77     O    0.93499   0.32924   0.60755   1.000
    O78     O    0.98227   0.62504   0.62742   1.000
    O79     O    0.82063   0.22434   0.64789   1.000
    O80     O    0.99811   0.24051   0.66575   1.000
    O81     O    0.73760   0.09321   0.70138   1.000
    O82     O    0.93999   0.75152   0.66940   1.000
    O83     O    0.82892   0.91647   0.70915   1.000
    O84     O    0.99100   0.62853   0.70528   1.000
    O85     O    0.16546   0.30871   0.71910   1.000
    O86     O    0.13030   0.49281   0.74488   1.000
    O87     O    0.36833   0.49228   0.75467   1.000
    O88     O    0.33474   0.30859   0.78138   1.000
    O89     O    0.66870   0.91524   0.79027   1.000
    O90     O    0.76108   0.09003   0.80001   1.000
    O91     O    0.50629   0.62713   0.79385   1.000
    O92     O    0.50185   0.23896   0.83558   1.000
    O93     O    0.55704   0.74942   0.82931   1.000
    O94     O    0.51550   0.62351   0.87182   1.000
    O95     O    0.67857   0.21974   0.85406   1.000
    O96     O    0.56460   0.32708   0.89356   1.000
    O97     O    0.52502   0.48657   0.92208   1.000
    O98     O    0.48250   0.63323   0.95131   1.000
    O99     O    0.44529   0.75896   0.98198   1.000
loop_
    _geom_bond_atom_site_label_1
    _geom_bond_atom_site_label_2
    _geom_bond_distance
    _geom_bond_site_symmetry_2
    _ccdc_geom_bond_type
    C9     O44       0.54413      .   S
    C5     O44       0.54413      .   S
    C9     O45       0.70030      .   S
    C23    O45       0.70030      .   S
    C9     O46       0.69895  1_554   S
    C10    O46       0.69895      .   S
    C21    O47       0.70511      .   S
    C23    O47       0.70511      .   S
    C21    O48       0.75046      .   S
    C27    O48       0.75046      .   S
    C21    O49       0.69894      .   S
    C18    O49       0.69894  1_556   S
    C23    O50       0.75529      .   S
    C25    O50       0.75529      .   S
    C27    O51       0.63265      .   S
    C37    O51       0.63265      .   S
    C27    O52       0.64265      .   S
    C39    O52       0.64265      .   S
    C37    O53       1.03456      .   S
    C1     O53       1.03456  1_545   S
    C41    O54       0.63435      .   S
    C25    O54       0.63435      .   S
    C41    O55       0.99255      .   S
    C1     O55       0.99255      .   S
    C25    O56       0.63813      .   S
    C43    O56       0.63813      .   S
    C39    O57       0.98627      .   S
    C3     O57       0.98627      .   S
    C43    O58       1.00158      .   S
    C3     O58       1.00158      .   S
    C1     O59       0.99223      .   S
    C29    O59       0.99223      .   S
    C1     O60       1.03442  1_545   S
    C33    O60       1.03442      .   S
    C3     O61       1.00263      .   S
    C31    O61       1.00263      .   S
    C3     O62       0.98760      .   S
    C35    O62       0.98760      .   S
    C31    O63       0.63817  1_655   S
    C17    O63       0.63817      .   S
    C35    O64       0.64249  1_655   S
    C15    O64       0.64249      .   S
    C17    O65       0.63480      .   S
    C29    O65       0.63480      .   S
    C17    O66       0.75458      .   S
    C11    O66       0.75458      .   S
    C33    O67       0.63256      .   S
    C15    O67       0.63256      .   S
    C15    O68       0.75034      .   S
    C13    O68       0.75034      .   S
    C11    O69       0.70486      .   S
    C13    O69       0.70486      .   S
    C11    O70       0.70015  1_455   S
    C8     O70       0.70015      .   S
    C13    O71       0.69860      .   S
    C19    O71       0.69860      .   S
    C4     O72       0.54413      .   S
    C8     O72       0.54413      .   S
    C8     O73       0.69860      .   S
    C22    O73       0.69860      .   S
    C19    O74       0.54414      .   S
    C7     O74       0.54414      .   S
    C19    O75       0.70015      .   S
    C20    O75       0.70015  1_655   S
    C22    O76       0.70486      .   S
    C20    O76       0.70486      .   S
    C22    O77       0.75034      .   S
    C24    O77       0.75034      .   S
    C20    O78       0.75457      .   S
    C26    O78       0.75457      .   S
    C24    O79       0.63256      .   S
    C40    O79       0.63256      .   S
    C24    O80       0.64249      .   S
    C42    O80       0.64249  1_455   S
    C40    O81       1.03442      .   S
    C0     O81       1.03442      .   S
    C36    O82       0.63479      .   S
    C26    O82       0.63479      .   S
    C36    O83       0.99223      .   S
    C0     O83       0.99223  1_545   S
    C26    O84       0.63817      .   S
    C38    O84       0.63817  1_455   S
    C42    O85       0.98764      .   S
    C2     O85       0.98764      .   S
    C38    O86       1.00268      .   S
    C2     O86       1.00268      .   S
    C2     O87       1.00153      .   S
    C34    O87       1.00153      .   S
    C2     O88       0.98623      .   S
    C30    O88       0.98623      .   S
    C0     O89       0.99257  1_545   S
    C32    O89       0.99257      .   S
    C0     O90       1.03456      .   S
    C28    O90       1.03456      .   S
    C34    O91       0.63813      .   S
    C14    O91       0.63813      .   S
    C30    O92       0.64265      .   S
    C16    O92       0.64265      .   S
    C14    O93       0.63436      .   S
    C32    O93       0.63436      .   S
    C14    O94       0.75529      .   S
    C12    O94       0.75529      .   S
    C28    O95       0.63265      .   S
    C16    O95       0.63265      .   S
    C16    O96       0.75045      .   S
    C10    O96       0.75045      .   S
    C12    O97       0.70511      .   S
    C10    O97       0.70511      .   S
    C12    O98       0.70031      .   S
    C18    O98       0.70031      .   S
    C6     O99       0.54412      .   S
    C18    O99       0.54412      .   S
