# CIF file generated by openbabel 2.4.90, see http://openbabel.sf.net
data_I
_chemical_name_common ''
_cell_length_a 9.5345
_cell_length_b 11.0795
_cell_length_c 17.059
_cell_angle_alpha 90
_cell_angle_beta 90
_cell_angle_gamma 90.038
_space_group_name_H-M_alt 'P 1'
_space_group_name_Hall 'P 1'
loop_
    _symmetry_equiv_pos_as_xyz
    x,y,z
loop_
    _atom_site_label
    _atom_site_type_symbol
    _atom_site_fract_x
    _atom_site_fract_y
    _atom_site_fract_z
    _atom_site_occupancy
    N0      N    0.31429   0.69962   0.14047   1.000
    N1      N    0.18515   0.29805   0.39058   1.000
    N2      N    0.81409   0.79845   0.35932   1.000
    N3      N    0.68514   0.20044   0.11210   1.000
    N4      N    0.81409   0.79845   0.85933   1.000
    N5      N    0.68514   0.20044   0.60948   1.000
    N6      N    0.18515   0.29805   0.89060   1.000
    N7      N    0.31429   0.69962   0.64048   1.000
    Zr8     Zr   0.16479   0.64909   0.36333   1.000
    O9      O    0.21011   0.66615   0.44966   1.000
    O10     O    0.18759   0.54265   0.36224   1.000
    O11     O    0.16425   0.53499   0.37605   1.000
    O12     O    0.04790   0.69198   0.36806   1.000
    O13     O    0.05651   0.68668   0.34982   1.000
    O14     O    0.21895   0.67739   0.29806   1.000
    Zr15    Zr   0.33400   0.34922   0.11335   1.000
    O16     O    0.28900   0.33189   0.19973   1.000
    O17     O    0.45085   0.30618   0.11878   1.000
    O18     O    0.44246   0.31196   0.10055   1.000
    O19     O    0.28010   0.32078   0.04812   1.000
    O20     O    0.31116   0.45548   0.11223   1.000
    O21     O    0.33461   0.46299   0.12605   1.000
    Zr22    Zr   0.16479   0.64909   0.86334   1.000
    O23     O    0.16425   0.53499   0.87607   1.000
    O24     O    0.21895   0.67739   0.79808   1.000
    O25     O    0.05651   0.68668   0.84984   1.000
    O26     O    0.04790   0.69198   0.86807   1.000
    O27     O    0.18759   0.54265   0.86225   1.000
    O28     O    0.21011   0.66615   0.94967   1.000
    Zr29    Zr   0.33400   0.34922   0.61336   1.000
    O30     O    0.33461   0.46299   0.62606   1.000
    O31     O    0.31116   0.45548   0.61225   1.000
    O32     O    0.28010   0.32078   0.54813   1.000
    O33     O    0.45085   0.30618   0.61814   1.000
    O34     O    0.44246   0.31196   0.59990   1.000
    O35     O    0.28900   0.33189   0.69974   1.000
    Zr36    Zr   0.66523   0.85026   0.63660   1.000
    O37     O    0.54847   0.80660   0.63182   1.000
    O38     O    0.55684   0.81239   0.65006   1.000
    O39     O    0.71918   0.82162   0.70180   1.000
    O40     O    0.66472   0.96394   0.62392   1.000
    O41     O    0.68786   0.95652   0.63775   1.000
    O42     O    0.71031   0.83268   0.55022   1.000
    Zr43    Zr   0.83415   0.15003   0.88664   1.000
    O44     O    0.78019   0.17830   0.95718   1.000
    O45     O    0.83482   0.03575   0.87388   1.000
    O46     O    0.81125   0.04342   0.88770   1.000
    O47     O    0.78911   0.16713   0.80027   1.000
    O48     O    0.95116   0.19245   0.88189   1.000
    O49     O    0.94253   0.18716   0.90013   1.000
    Zr50    Zr   0.83415   0.15003   0.38663   1.000
    O51     O    0.95116   0.19245   0.38187   1.000
    O52     O    0.94253   0.18716   0.40011   1.000
    O53     O    0.78911   0.16713   0.30092   1.000
    O54     O    0.78019   0.17830   0.45189   1.000
    O55     O    0.81125   0.04342   0.38769   1.000
    O56     O    0.83482   0.03575   0.37386   1.000
    Zr57    Zr   0.66523   0.85026   0.13659   1.000
    O58     O    0.71031   0.83268   0.05021   1.000
    O59     O    0.71918   0.82162   0.20179   1.000
    O60     O    0.68786   0.95652   0.13840   1.000
    O61     O    0.66472   0.96394   0.12456   1.000
    O62     O    0.55684   0.81239   0.15004   1.000
    O63     O    0.54847   0.80660   0.13181   1.000
loop_
    _geom_bond_atom_site_label_1
    _geom_bond_atom_site_label_2
    _geom_bond_distance
    _geom_bond_site_symmetry_2
    _ccdc_geom_bond_type
    Zr8    O9        1.54646      .   S
    N7     O9        3.42335      .   S
    Zr8    O10       1.19939      .   S
    N1     O10       2.75298      .   S
    Zr8    O11       1.28263      .   S
    N1     O11       2.64453      .   S
    Zr8    O12       1.21458      .   S
    N2     O12       2.52719  1_655   S
    Zr8    O13       1.13702      .   S
    N2     O13       2.62796  1_655   S
    Zr8    O14       1.26665      .   S
    N0     O14       2.84856      .   S
    Zr15   O16       1.54669      .   S
    N1     O16       3.42355      .   S
    Zr15   O17       1.21568      .   S
    N3     O17       2.52572      .   S
    Zr15   O18       1.13492      .   S
    N3     O18       2.63120      .   S
    Zr15   O19       1.26537      .   S
    N6     O19       2.84675  1_556   S
    Zr15   O20       1.19759      .   S
    N0     O20       2.74758      .   S
    Zr15   O21       1.27897      .   S
    N0     O21       2.64049      .   S
    Zr22   O23       1.28263      .   S
    N6     O23       2.64453      .   S
    Zr22   O24       1.26666      .   S
    N7     O24       2.84858      .   S
    Zr22   O25       1.13702      .   S
    N4     O25       2.62796  1_655   S
    Zr22   O26       1.21458      .   S
    N4     O26       2.52719  1_655   S
    Zr22   O27       1.19939      .   S
    N6     O27       2.75298      .   S
    Zr22   O28       1.54635      .   S
    N0     O28       3.42304  1_554   S
    Zr29   O30       1.27897      .   S
    N7     O30       2.64049      .   S
    Zr29   O31       1.19759      .   S
    N7     O31       2.74758      .   S
    Zr29   O32       1.26552      .   S
    N1     O32       2.84704      .   S
    Zr29   O33       1.21488      .   S
    N5     O33       2.52747      .   S
    Zr29   O34       1.13714      .   S
    N5     O34       2.62889      .   S
    Zr29   O35       1.54669      .   S
    N6     O35       3.42355      .   S
    Zr36   O37       1.21625      .   S
    N7     O37       2.53155      .   S
    Zr36   O38       1.13856      .   S
    N7     O38       2.63285      .   S
    Zr36   O39       1.26598      .   S
    N4     O39       2.84718      .   S
    Zr36   O40       1.27799      .   S
    N5     O40       2.63887  1_545   S
    Zr36   O41       1.19693      .   S
    N5     O41       2.74532  1_545   S
    Zr36   O42       1.54733      .   S
    N2     O42       3.42470      .   S
    Zr43   O44       1.34566      .   S
    N3     O44       2.80475  1_554   S
    Zr43   O45       1.28484      .   S
    N4     O45       2.64808  1_565   S
    Zr43   O46       1.20118      .   S
    N4     O46       2.75717  1_565   S
    Zr43   O47       1.54637      .   S
    N5     O47       3.42242      .   S
    Zr43   O48       1.21299      .   S
    N6     O48       2.52287  1_455   S
    Zr43   O49       1.13545      .   S
    N6     O49       2.62366  1_455   S
    Zr50   O51       1.21299      .   S
    N1     O51       2.52287  1_455   S
    Zr50   O52       1.13545      .   S
    N1     O52       2.62366  1_455   S
    Zr50   O53       1.53564      .   S
    N3     O53       3.39031      .   S
    Zr50   O54       1.26589      .   S
    N5     O54       2.84752      .   S
    Zr50   O55       1.20118      .   S
    N2     O55       2.75717  1_565   S
    Zr50   O56       1.28484      .   S
    N2     O56       2.64807  1_565   S
    Zr57   O58       1.54723      .   S
    N4     O58       3.42438  1_556   S
    Zr57   O59       1.26599      .   S
    N2     O59       2.84720      .   S
    Zr57   O60       1.19717      .   S
    N3     O60       2.73958  1_545   S
    Zr57   O61       1.27613      .   S
    N3     O61       2.63593  1_545   S
    Zr57   O62       1.13856      .   S
    N0     O62       2.63285      .   S
    Zr57   O63       1.21625      .   S
    N0     O63       2.53155      .   S
