# CIF file generated by openbabel 2.4.90, see http://openbabel.sf.net
data_I
_chemical_name_common ''
_cell_length_a 16.171
_cell_length_b 16.186
_cell_length_c 26.823
_cell_angle_alpha 84.506
_cell_angle_beta 84.475
_cell_angle_gamma 84.441
_space_group_name_H-M_alt 'P 1'
_space_group_name_Hall 'P 1'
loop_
    _symmetry_equiv_pos_as_xyz
    x,y,z
loop_
    _atom_site_label
    _atom_site_type_symbol
    _atom_site_fract_x
    _atom_site_fract_y
    _atom_site_fract_z
    _atom_site_occupancy
    H0      H    0.66693   0.56180   0.38607   1.000
    H1      H    0.66942   0.69558   0.33299   1.000
    H2      H    0.93698   0.68166   0.33511   1.000
    H3      H    0.93255   0.54595   0.38774   1.000
    H4      H    0.69721   0.83849   0.29936   1.000
    H5      H    0.71424   0.75634   0.25817   1.000
    H6      H    0.64909   0.92698   0.22152   1.000
    H7      H    0.72096   0.94051   0.16680   1.000
    H8      H    0.62081   0.69133   0.15960   1.000
    H9      H    0.50439   0.68248   0.10565   1.000
    H10     H    0.46888   0.94873   0.08723   1.000
    H11     H    0.58317   0.95986   0.14090   1.000
    H12     H    0.85668   0.91616   0.27674   1.000
    H13     H    0.83785   0.98187   0.22052   1.000
    H14     H    0.63237   0.08401   0.32284   1.000
    H15     H    0.65733   0.19248   0.37893   1.000
    H16     H    0.92107   0.13650   0.35089   1.000
    H17     H    0.89820   0.02912   0.29504   1.000
    H18     H    0.89962   0.80450   0.22080   1.000
    H19     H    0.82554   0.76798   0.18452   1.000
    H20     H    0.96911   0.73257   0.15800   1.000
    H21     H    0.10227   0.71032   0.10452   1.000
    H22     H    0.07259   0.96237   0.03906   1.000
    H23     H    0.93759   0.98607   0.09148   1.000
    H24     H    0.56184   0.67060   0.88745   1.000
    H25     H    0.69629   0.67219   0.83471   1.000
    H26     H    0.67986   0.94021   0.83274   1.000
    H27     H    0.54355   0.93662   0.88497   1.000
    H28     H    0.83862   0.69980   0.79960   1.000
    H29     H    0.75560   0.71546   0.75899   1.000
    H30     H    0.92557   0.65044   0.72136   1.000
    H31     H    0.93835   0.72163   0.66638   1.000
    H32     H    0.68925   0.62263   0.65907   1.000
    H33     H    0.68069   0.50578   0.60538   1.000
    H34     H    0.94721   0.46777   0.58919   1.000
    H35     H    0.95798   0.58251   0.64260   1.000
    H36     H    0.91579   0.85868   0.77544   1.000
    H37     H    0.98049   0.83942   0.71887   1.000
    H38     H    0.08531   0.63536   0.82077   1.000
    H39     H    0.19339   0.66096   0.87695   1.000
    H40     H    0.13489   0.92423   0.84973   1.000
    H41     H    0.02782   0.90071   0.79383   1.000
    H42     H    0.80243   0.90048   0.72035   1.000
    H43     H    0.76565   0.82575   0.68461   1.000
    H44     H    0.72968   0.96910   0.65751   1.000
    H45     H    0.70735   0.10254   0.60436   1.000
    H46     H    0.96001   0.07410   0.53932   1.000
    H47     H    0.98384   0.93884   0.59142   1.000
    H48     H    0.43809   0.32938   0.11257   1.000
    H49     H    0.30359   0.32781   0.16527   1.000
    H50     H    0.32006   0.05978   0.16730   1.000
    H51     H    0.45640   0.06336   0.11510   1.000
    H52     H    0.16126   0.30022   0.20042   1.000
    H53     H    0.24433   0.28452   0.24100   1.000
    H54     H    0.07437   0.34955   0.27867   1.000
    H55     H    0.06164   0.27836   0.33365   1.000
    H56     H    0.31074   0.37734   0.34094   1.000
    H57     H    0.31932   0.49419   0.39463   1.000
    H58     H    0.05279   0.53222   0.41080   1.000
    H59     H    0.04201   0.41748   0.35739   1.000
    H60     H    0.08413   0.14128   0.22462   1.000
    H61     H    0.01944   0.16057   0.28119   1.000
    H62     H    0.91462   0.36460   0.17926   1.000
    H63     H    0.80657   0.33898   0.12306   1.000
    H64     H    0.86510   0.07572   0.15028   1.000
    H65     H    0.97214   0.09925   0.20619   1.000
    H66     H    0.19753   0.09952   0.27966   1.000
    H67     H    0.23434   0.17425   0.31538   1.000
    H68     H    0.27032   0.03090   0.34249   1.000
    H69     H    0.29267   0.89745   0.39564   1.000
    H70     H    0.04002   0.92589   0.46070   1.000
    H71     H    0.01618   0.06115   0.40861   1.000
    C72     C    0.82337   0.61008   0.65391   1.000
    C73     C    0.74536   0.58755   0.64373   1.000
    C74     C    0.74083   0.52289   0.61406   1.000
    C75     C    0.81377   0.47955   0.59369   1.000
    H76     H    0.33307   0.43817   0.61390   1.000
    H77     H    0.33054   0.30439   0.66700   1.000
    H78     H    0.06299   0.31835   0.66485   1.000
    H79     H    0.06745   0.45406   0.61220   1.000
    H80     H    0.30272   0.16151   0.70064   1.000
    H81     H    0.28573   0.24368   0.74181   1.000
    H82     H    0.35088   0.07306   0.77849   1.000
    H83     H    0.27902   0.05957   0.83315   1.000
    H84     H    0.37922   0.30873   0.84036   1.000
    H85     H    0.49561   0.31755   0.89436   1.000
    H86     H    0.53101   0.05129   0.91282   1.000
    H87     H    0.41675   0.04020   0.85905   1.000
    H88     H    0.14329   0.08383   0.72329   1.000
    H89     H    0.16212   0.01816   0.77952   1.000
    H90     H    0.36761   0.91602   0.67718   1.000
    H91     H    0.34266   0.80757   0.62108   1.000
    H92     H    0.07891   0.86349   0.64914   1.000
    H93     H    0.10177   0.97085   0.70501   1.000
    C94     C    0.87623   0.13900   0.15669   1.000
    C95     C    0.93671   0.15243   0.18811   1.000
    C96     C    0.17844   0.15256   0.30217   1.000
    C97     C    0.14121   0.05422   0.37210   1.000
    H98     H    0.10035   0.19553   0.77915   1.000
    H99     H    0.17442   0.23206   0.81548   1.000
    H100    H    0.03084   0.26744   0.84196   1.000
    H101    H    0.89768   0.28967   0.89550   1.000
    H102    H    0.92737   0.03758   0.96092   1.000
    H103    H    0.06237   0.01392   0.90850   1.000
    C104    C    0.79950   0.54503   0.39073   1.000
    C105    C    0.72605   0.58822   0.37490   1.000
    C106    C    0.72756   0.66348   0.34474   1.000
    C107    C    0.80406   0.69679   0.33020   1.000
    C108    C    0.87809   0.65475   0.34600   1.000
    C109    C    0.87539   0.57967   0.37578   1.000
    C110    C    0.74361   0.80552   0.27360   1.000
    C111    C    0.70129   0.89645   0.19860   1.000
    C112    C    0.60948   0.82537   0.15344   1.000
    C113    C    0.58637   0.74737   0.14374   1.000
    C114    C    0.52192   0.74267   0.11389   1.000
    C115    C    0.47931   0.81544   0.09284   1.000
    C116    C    0.50171   0.89259   0.10398   1.000
    C117    C    0.56595   0.89874   0.13425   1.000
    C118    C    0.80903   0.94137   0.25128   1.000
    C119    C    0.76306   0.04856   0.30627   1.000
    C120    C    0.69540   0.09583   0.32957   1.000
    C121    C    0.70952   0.15579   0.36062   1.000
    C122    C    0.79099   0.17065   0.36920   1.000
    C123    C    0.85785   0.12471   0.34465   1.000
    C124    C    0.84479   0.06406   0.31329   1.000
    C125    C    0.84675   0.82370   0.19819   1.000
    C126    C    0.94519   0.86141   0.12833   1.000
    C127    C    0.99087   0.78322   0.13194   1.000
    C128    C    0.06579   0.77057   0.10192   1.000
    C129    C    0.09622   0.83478   0.06863   1.000
    C130    C    0.04888   0.91237   0.06495   1.000
    C131    C    0.97395   0.92572   0.09400   1.000
    C132    C    0.54388   0.80344   0.88999   1.000
    C133    C    0.58790   0.72959   0.87543   1.000
    C134    C    0.66348   0.73059   0.84549   1.000
    C135    C    0.69620   0.80698   0.82991   1.000
    C136    C    0.65335   0.88142   0.84485   1.000
    C137    C    0.57795   0.87919   0.87403   1.000
    C138    C    0.80501   0.74547   0.77380   1.000
    C139    C    0.89466   0.70231   0.69845   1.000
    C140    C    0.89093   0.50131   0.60530   1.000
    C141    C    0.89688   0.56579   0.63542   1.000
    C142    C    0.94059   0.81082   0.75004   1.000
    C143    C    0.04846   0.76573   0.80472   1.000
    C144    C    0.09647   0.69841   0.82773   1.000
    C145    C    0.15622   0.71291   0.85883   1.000
    C146    C    0.17019   0.79442   0.86774   1.000
    C147    C    0.12375   0.86096   0.84332   1.000
    C148    C    0.06324   0.84752   0.81191   1.000
    C149    C    0.82154   0.84744   0.69780   1.000
    C150    C    0.85880   0.94578   0.62792   1.000
    C151    C    0.78042   0.99120   0.63157   1.000
    C152    C    0.76774   0.06624   0.60178   1.000
    C153    C    0.83209   0.09700   0.56868   1.000
    C154    C    0.90991   0.05002   0.56502   1.000
    C155    C    0.92331   0.97496   0.59394   1.000
    C156    C    0.45607   0.19653   0.11006   1.000
    C157    C    0.41202   0.27039   0.12460   1.000
    C158    C    0.33642   0.26940   0.15450   1.000
    C159    C    0.30370   0.19301   0.17009   1.000
    C160    C    0.34657   0.11856   0.15518   1.000
    C161    C    0.42199   0.12079   0.12602   1.000
    C162    C    0.19489   0.25453   0.22614   1.000
    C163    C    0.10530   0.29768   0.30150   1.000
    C164    C    0.17662   0.38991   0.34611   1.000
    C165    C    0.25463   0.41243   0.35629   1.000
    C166    C    0.25917   0.47708   0.38595   1.000
    C167    C    0.18624   0.52044   0.40633   1.000
    C168    C    0.10907   0.49867   0.39400   1.000
    C169    C    0.10311   0.43420   0.36460   1.000
    C170    C    0.05934   0.18916   0.25000   1.000
    C171    C    0.95148   0.23423   0.19531   1.000
    C172    C    0.90347   0.30154   0.17230   1.000
    C173    C    0.84374   0.28704   0.14119   1.000
    C174    C    0.82978   0.20553   0.13228   1.000
    C175    C    0.21959   0.00880   0.36844   1.000
    C176    C    0.23228   0.93376   0.39823   1.000
    C177    C    0.16793   0.90300   0.43133   1.000
    C178    C    0.09011   0.94997   0.43500   1.000
    C179    C    0.07671   0.02504   0.40608   1.000
    C180    C    0.20050   0.45497   0.60920   1.000
    C181    C    0.27394   0.41176   0.62509   1.000
    C182    C    0.27241   0.33650   0.65525   1.000
    C183    C    0.19591   0.30321   0.66978   1.000
    C184    C    0.12188   0.34526   0.65358   1.000
    C185    C    0.12460   0.42034   0.62419   1.000
    C186    C    0.25634   0.19450   0.72631   1.000
    C187    C    0.29868   0.10361   0.80138   1.000
    C188    C    0.39049   0.17469   0.84650   1.000
    C189    C    0.41363   0.25268   0.85626   1.000
    C190    C    0.47807   0.25736   0.88612   1.000
    C191    C    0.52064   0.18459   0.90719   1.000
    C192    C    0.49821   0.10744   0.89606   1.000
    C193    C    0.43398   0.10131   0.86577   1.000
    C194    C    0.19094   0.05864   0.74875   1.000
    C195    C    0.23691   0.95145   0.69376   1.000
    C196    C    0.30458   0.90419   0.67045   1.000
    C197    C    0.29046   0.84425   0.63939   1.000
    C198    C    0.20900   0.82937   0.63082   1.000
    C199    C    0.14213   0.87529   0.65538   1.000
    C200    C    0.15518   0.93594   0.68675   1.000
    C201    C    0.15322   0.17634   0.80182   1.000
    C202    C    0.05477   0.13859   0.87167   1.000
    C203    C    0.00909   0.21678   0.86807   1.000
    C204    C    0.93416   0.22941   0.89809   1.000
    C205    C    0.90374   0.16519   0.93137   1.000
    C206    C    0.95108   0.08760   0.93503   1.000
    C207    C    0.02601   0.07427   0.90590   1.000
    O208    O    0.81329   0.76935   0.30014   1.000
    O209    O    0.67669   0.82196   0.18109   1.000
    O210    O    0.74237   0.98842   0.27807   1.000
    O211    O    0.87162   0.88135   0.15655   1.000
    O212    O    0.76897   0.81565   0.79991   1.000
    O213    O    0.81987   0.67740   0.68141   1.000
    O214    O    0.98834   0.74457   0.77666   1.000
    O215    O    0.87866   0.87204   0.65587   1.000
    O216    O    0.23089   0.18436   0.20007   1.000
    O217    O    0.18011   0.32259   0.31800   1.000
    O218    O    0.01158   0.25539   0.22338   1.000
    O219    O    0.12134   0.12795   0.34415   1.000
    O220    O    0.18665   0.23067   0.69986   1.000
    O221    O    0.32329   0.17811   0.81890   1.000
    O222    O    0.25760   0.01158   0.72197   1.000
    O223    O    0.12835   0.11868   0.84346   1.000
loop_
    _geom_bond_atom_site_label_1
    _geom_bond_atom_site_label_2
    _geom_bond_distance
    _geom_bond_site_symmetry_2
    _ccdc_geom_bond_type
    H22    C130      1.08882      .   S
    C130   C129      1.40620      .   S
    C130   C131      1.38632  1_455   S
    C129   C128      1.39875      .   S
    H10    C116      1.08796      .   S
    H23    C131      1.09001      .   S
    C115   C116      1.39996      .   S
    C115   C114      1.40396      .   S
    C131   C126      1.40544      .   S
    C128   H21       1.08970      .   S
    C128   C127      1.39778  1_455   S
    C116   C117      1.39509      .   S
    H9     C114      1.08869      .   S
    C156   C157      1.39975      .   S
    C156   C161      1.40540      .   S
    H48    C157      1.08916      .   S
    C114   C113      1.38592      .   S
    H51    C161      1.08628      .   S
    H63    C173      1.08849      .   S
    C157   C158      1.39657      .   S
    C161   C160      1.38561      .   S
    C126   C127      1.40217      .   S
    C126   O211      1.37529      .   S
    C127   H20       1.08771      .   S
    C174   C173      1.40606      .   S
    C174   C94       1.39850      .   S
    C117   H11       1.08847      .   S
    C117   C112      1.40053      .   S
    C173   C172      1.38603      .   S
    C113   C112      1.40515      .   S
    C113   H8        1.08986      .   S
    H64    C94       1.08914      .   S
    C112   O209      1.36759      .   S
    C158   H49       1.08840      .   S
    C158   C159      1.40311      .   S
    C160   H50       1.08985      .   S
    C160   C159      1.40352      .   S
    O211   C125      1.43760      .   S
    C94    C95       1.39621      .   S
    H7     C111      1.10121      .   S
    C159   O216      1.37131      .   S
    C172   H62       1.08983      .   S
    C172   C171      1.40370      .   S
    O209   C111      1.43862      .   S
    H19    C125      1.10138      .   S
    C95    C171      1.40221      .   S
    C95    H65       1.08735      .   S
    C171   O218      1.37250  1_655   S
    C125   H18       1.09888      .   S
    C111   H6        1.10108      .   S
    O216   C162      1.43648      .   S
    H52    C162      1.10237      .   S
    H13    C118      1.09967      .   S
    O218   C170      1.43346      .   S
    H60    C170      1.10133      .   S
    C162   H53       1.09872      .   S
    C170   H61       1.10000      .   S
    C118   H12       1.10171      .   S
    C118   O210      1.43341      .   S
    H5     C110      1.09758      .   S
    C110   H4        1.10383      .   S
    C110   O208      1.43736      .   S
    O210   C119      1.37276  1_565   S
    H54    C163      1.09964      .   S
    H66    C96       1.09955      .   S
    H17    C124      1.08735      .   S
    O208   C107      1.37156      .   S
    C163   O217      1.43299      .   S
    C163   H55       1.10183      .   S
    C96    H67       1.10139      .   S
    C96    O219      1.43673      .   S
    C119   C124      1.40231      .   S
    C119   C120      1.40391      .   S
    C124   C123      1.39587      .   S
    O217   C164      1.37699      .   S
    H14    C120      1.08986      .   S
    C120   C121      1.38631      .   S
    C107   C106      1.40317      .   S
    C107   C108      1.40027      .   S
    H1     C106      1.08827      .   S
    H2     C108      1.08827      .   S
    H56    C165      1.09013      .   S
    H68    C175      1.08854      .   S
    O219   C97       1.37498      .   S
    C123   H16       1.08928      .   S
    C123   C122      1.39869      .   S
    C106   C105      1.39722      .   S
    C108   C109      1.39086      .   S
    C164   C165      1.40476      .   S
    C164   C169      1.40071      .   S
    C165   C166      1.38528      .   S
    H59    C169      1.08891      .   S
    C121   C122      1.40596      .   S
    C121   H15       1.08862      .   S
    C169   C168      1.38277      .   S
    C175   C97       1.40201      .   S
    C175   C176      1.39766  1_545   S
    C97    C179      1.40415      .   S
    C105   H0        1.08915      .   S
    C105   C104      1.39961      .   S
    C109   H3        1.08677      .   S
    C109   C104      1.40599      .   S
    C166   H57       1.08858      .   S
    C166   C167      1.40399      .   S
    C168   C167      1.40630      .   S
    C168   H58       1.09470      .   S
    H69    C176      1.08967      .   S
    C176   C177      1.39887      .   S
    C179   H71       1.09011      .   S
    C179   C178      1.38774  1_545   S
    C177   C178      1.40585      .   S
    C178   H70       1.08886      .   S
    H46    C154      1.08892      .   S
    C154   C153      1.40586      .   S
    C154   C155      1.38774  1_545   S
    C153   C152      1.39890      .   S
    H34    C140      1.08784      .   S
    H47    C155      1.09011      .   S
    C75    C140      1.39970      .   S
    C75    C74       1.40388      .   S
    C155   C150      1.40424      .   S
    C152   H45       1.08967      .   S
    C152   C151      1.39764  1_545   S
    C140   C141      1.39539      .   S
    H33    C74       1.08856      .   S
    C180   C185      1.40621      .   S
    C180   C181      1.40012      .   S
    H79    C185      1.08695      .   S
    H76    C181      1.08926      .   S
    C74    C73       1.38548      .   S
    H91    C197      1.08853      .   S
    C185   C184      1.38579      .   S
    C181   C182      1.39722      .   S
    C150   C151      1.40200      .   S
    C150   O215      1.37494      .   S
    C198   C197      1.40590      .   S
    C198   C199      1.39869      .   S
    C151   H44       1.08846      .   S
    C141   H35       1.08864      .   S
    C141   C72       1.40075      .   S
    C197   C196      1.38632      .   S
    C73    C72       1.40476      .   S
    C73    H32       1.09003      .   S
    H92    C199      1.08932      .   S
    C184   H78       1.08985      .   S
    C184   C183      1.40382      .   S
    C72    O213      1.36696      .   S
    C182   H77       1.08824      .   S
    C182   C183      1.40314      .   S
    C199   C200      1.39595      .   S
    O215   C149      1.43606      .   S
    H31    C139      1.10054      .   S
    C183   O220      1.37161      .   S
    C196   H90       1.08986      .   S
    C196   C195      1.40392      .   S
    O213   C139      1.43886      .   S
    H43    C149      1.10097      .   S
    C200   C195      1.40225      .   S
    C200   H93       1.08738      .   S
    C195   O222      1.37286  1_565   S
    C149   H42       1.10023      .   S
    C139   H30       1.10065      .   S
    O220   C186      1.43616      .   S
    H80    C186      1.10235      .   S
    H37    C142      1.09984      .   S
    O222   C194      1.43339      .   S
    H88    C194      1.10167      .   S
    C186   H81       1.09866      .   S
    C194   H89       1.09968      .   S
    C142   H36       1.10153      .   S
    C142   O214      1.43355      .   S
    H29    C138      1.09788      .   S
    C138   H28       1.10334      .   S
    C138   O212      1.43738      .   S
    O214   C143      1.37248  1_655   S
    H82    C187      1.10069      .   S
    H98    C201      1.09987      .   S
    H41    C148      1.08735      .   S
    O212   C135      1.37111      .   S
    C187   O221      1.43894      .   S
    C187   H83       1.10048      .   S
    C201   H99       1.10129      .   S
    C201   O223      1.43761      .   S
    C143   C148      1.40221      .   S
    C143   C144      1.40374      .   S
    C148   C147      1.39619      .   S
    O221   C188      1.36653      .   S
    H38    C144      1.08987      .   S
    C144   C145      1.38601      .   S
    C135   C136      1.40356      .   S
    C135   C134      1.40307      .   S
    H26    C136      1.08982      .   S
    H25    C134      1.08830      .   S
    H84    C189      1.09011      .   S
    H100   C203      1.08855      .   S
    C147   H40       1.08917      .   S
    C147   C146      1.39859      .   S
    O223   C202      1.37528      .   S
    C136   C137      1.38561      .   S
    C134   C133      1.39680      .   S
    C188   C189      1.40566      .   S
    C188   C193      1.40108      .   S
    C189   C190      1.38588      .   S
    C145   C146      1.40609      .   S
    C145   H39       1.08840      .   S
    H87    C193      1.08901      .   S
    C193   C192      1.39525      .   S
    C203   C202      1.40215      .   S
    C203   C204      1.39776  1_455   S
    C202   C207      1.40418      .   S
    C137   H27       1.08627      .   S
    C137   C132      1.40540      .   S
    C133   H24       1.08912      .   S
    C133   C132      1.39969      .   S
    C190   H85       1.08873      .   S
    C190   C191      1.40402      .   S
    H101   C204      1.08971      .   S
    C192   C191      1.39991      .   S
    C192   H86       1.08794      .   S
    C204   C205      1.39873      .   S
    C207   H103      1.09008      .   S
    C207   C206      1.38737  1_455   S
    C205   C206      1.40618      .   S
    C206   H102      1.08896      .   S
