# CIF file generated by openbabel 2.4.90, see http://openbabel.sf.net
data_I
_chemical_name_common ''
_cell_length_a 18.448
_cell_length_b 12.012
_cell_length_c 12.576
_cell_angle_alpha 79.494
_cell_angle_beta 74.765
_cell_angle_gamma 78.175
_space_group_name_H-M_alt 'P 1'
_space_group_name_Hall 'P 1'
loop_
    _symmetry_equiv_pos_as_xyz
    x,y,z
loop_
    _atom_site_label
    _atom_site_type_symbol
    _atom_site_fract_x
    _atom_site_fract_y
    _atom_site_fract_z
    _atom_site_occupancy
    Zr0     Zr   0.14370   0.74303   0.90286   1.000
    Zr1     Zr   0.64370   0.74303   0.90286   1.000
    Zr2     Zr   0.35632   0.25693   0.09715   1.000
    Zr3     Zr   0.85632   0.25693   0.09715   1.000
    Zr4     Zr   0.00000   1.00000   0.00000   1.000
    Zr5     Zr   0.50001   1.00000   0.00000   1.000
    N6      N    0.50001   0.49998   0.50000   1.000
    O7      O    0.65749   0.38547   0.33354   1.000
    O8      O    0.50325   0.27600   0.71238   1.000
    O9      O    0.49677   0.72397   0.28762   1.000
    O10     O    0.34253   0.61449   0.66646   1.000
    O11     O    0.43160   0.40779   0.26368   1.000
    O12     O    0.56843   0.59217   0.73632   1.000
    N13     N    0.99939   0.49998   0.49994   1.000
    O14     O    0.84222   0.61449   0.66643   1.000
    O15     O    0.99646   0.72397   0.28757   1.000
    O16     O    0.06811   0.59217   0.73629   1.000
    O17     O    0.15718   0.38547   0.33351   1.000
    O18     O    0.93129   0.40779   0.26365   1.000
    O19     O    0.00294   0.27600   0.71235   1.000
    N20     N    0.25001   0.99998   0.00000   1.000
    O21     O    0.30740   0.08774   0.03731   1.000
    O22     O    0.19261   0.91222   0.96270   1.000
    N23     N    0.02448   0.22609   0.12033   1.000
    O24     O    0.02158   0.14312   0.07643   1.000
    O25     O    0.96138   0.24316   0.12612   1.000
    N26     N    0.52449   0.22608   0.12031   1.000
    O27     O    0.46138   0.24316   0.12609   1.000
    O28     O    0.52159   0.14312   0.07642   1.000
    N29     N    0.47553   0.77389   0.87968   1.000
    O30     O    0.53863   0.75681   0.87389   1.000
    O31     O    0.47843   0.85686   0.92358   1.000
    N32     N    0.97553   0.77389   0.87968   1.000
    O33     O    0.03863   0.75681   0.87389   1.000
    O34     O    0.97843   0.85686   0.92358   1.000
    N35     N    0.75002   0.99998   0.99996   1.000
    O36     O    0.80741   0.08774   0.03728   1.000
    O37     O    0.69262   0.91222   0.96268   1.000
loop_
    _geom_bond_atom_site_label_1
    _geom_bond_atom_site_label_2
    _geom_bond_distance
    _geom_bond_site_symmetry_2
    _ccdc_geom_bond_type
    N6     O7        3.30612      .   S
    Zr3    O7        4.27760      .   S
    N6     O8        3.43121      .   S
    Zr5    O8        4.43543  1_564   S
    N6     O9        3.43126      .   S
    Zr5    O9        4.43562      .   S
    N6     O10       3.30616      .   S
    Zr0    O10       4.27768      .   S
    N6     O11       3.92382      .   S
    Zr2    O11       3.67999      .   S
    N6     O12       3.92385      .   S
    Zr1    O12       3.67994      .   S
    N13    O14       3.30272      .   S
    Zr1    O14       4.27445      .   S
    N13    O15       3.43083      .   S
    Zr4    O15       4.43491  1_455   S
    N13    O16       3.92747  1_655   S
    Zr0    O16       3.68381      .   S
    N13    O17       3.30947  1_655   S
    Zr2    O17       4.28083      .   S
    N13    O18       3.92013      .   S
    Zr3    O18       3.67608      .   S
    N13    O19       3.43182  1_655   S
    Zr4    O19       4.43596  1_564   S
    N20    O21       1.83064  1_565   S
    Zr2    O21       2.67907      .   S
    N20    O22       1.83064  1_554   S
    Zr0    O22       2.67910      .   S
    N23    O24       1.24057      .   S
    Zr4    O24       2.26319  1_565   S
    N23    O25       1.12490  1_455   S
    Zr3    O25       2.03336      .   S
    N26    O27       1.12500      .   S
    Zr2    O27       2.03330      .   S
    N26    O28       1.24050      .   S
    Zr5    O28       2.26310  1_565   S
    N29    O30       1.12497      .   S
    Zr1    O30       2.03342      .   S
    N29    O31       1.24061      .   S
    Zr5    O31       2.26329  1_554   S
    N32    O33       1.12490  1_655   S
    Zr0    O33       2.03335      .   S
    N32    O34       1.24059      .   S
    Zr4    O34       2.26323  1_454   S
    N35    O36       1.83074  1_566   S
    Zr3    O36       2.67917      .   S
    N35    O37       1.83055      .   S
    Zr1    O37       2.67901      .   S
