# CIF file generated by openbabel 2.4.90, see http://openbabel.sf.net
data_I
_chemical_name_common ''
_cell_length_a 15.503
_cell_length_b 15.666
_cell_length_c 18.559
_cell_angle_alpha 90.008
_cell_angle_beta 90
_cell_angle_gamma 89.962
_space_group_name_H-M_alt 'P 1'
_space_group_name_Hall 'P 1'
loop_
    _symmetry_equiv_pos_as_xyz
    x,y,z
loop_
    _atom_site_label
    _atom_site_type_symbol
    _atom_site_fract_x
    _atom_site_fract_y
    _atom_site_fract_z
    _atom_site_occupancy
    Zr0     Zr   0.79643   0.86257   0.59402   1.000
    Zr1     Zr   0.48922   0.66328   0.68600   1.000
    Zr2     Zr   0.70355   0.13744   0.09401   1.000
    Zr3     Zr   0.01078   0.33674   0.18687   1.000
    Zr4     Zr   0.20348   0.36247   0.90593   1.000
    Zr5     Zr   0.51084   0.16315   0.81310   1.000
    Zr6     Zr   0.29656   0.63760   0.40593   1.000
    Zr7     Zr   0.98914   0.83686   0.31312   1.000
    Zr8     Zr   0.20356   0.13746   0.40595   1.000
    Zr9     Zr   0.51076   0.33675   0.31307   1.000
    Zr10    Zr   0.29643   0.86259   0.90596   1.000
    Zr11    Zr   0.98920   0.66328   0.81310   1.000
    Zr12    Zr   0.79651   0.63756   0.09404   1.000
    Zr13    Zr   0.48914   0.83688   0.18687   1.000
    Zr14    Zr   0.70343   0.36243   0.59404   1.000
    Zr15    Zr   0.01084   0.16316   0.68685   1.000
    N16     N    0.33342   0.88402   0.07675   1.000
    O17     O    0.32181   0.87652   0.01749   1.000
    O18     O    0.38812   0.86721   0.11373   1.000
    N19     N    0.88893   0.80556   0.16290   1.000
    O20     O    0.92514   0.81536   0.21429   1.000
    O21     O    0.85889   0.74686   0.13866   1.000
    N22     N    0.63417   0.98568   0.19775   1.000
    O23     O    0.58301   0.93533   0.19343   1.000
    O24     O    0.65831   0.03665   0.16051   1.000
    N25     N    0.66629   0.38384   0.42329   1.000
    O26     O    0.61166   0.36705   0.38628   1.000
    O27     O    0.67794   0.37634   0.48254   1.000
    N28     N    0.11097   0.30544   0.33708   1.000
    O29     O    0.07477   0.31523   0.28569   1.000
    O30     O    0.14107   0.24674   0.36133   1.000
    N31     N    0.13418   0.98565   0.30224   1.000
    O32     O    0.08300   0.93530   0.30655   1.000
    O33     O    0.15832   0.03663   0.33948   1.000
    N34     N    0.61095   0.30544   0.16282   1.000
    O35     O    0.57475   0.31524   0.21422   1.000
    O36     O    0.64105   0.24674   0.13859   1.000
    N37     N    0.59271   0.82764   0.62310   1.000
    O38     O    0.55763   0.77078   0.64552   1.000
    O39     O    0.66334   0.83929   0.61353   1.000
    N40     N    0.09286   0.67255   0.37681   1.000
    O41     O    0.05769   0.72939   0.35423   1.000
    O42     O    0.16348   0.66090   0.38640   1.000
    N43     N    0.16632   0.38391   0.07668   1.000
    O44     O    0.17798   0.37639   0.01743   1.000
    O45     O    0.11169   0.36709   0.11368   1.000
    N46     N    0.33370   0.61618   0.57667   1.000
    O47     O    0.38833   0.63298   0.61346   1.000
    O48     O    0.32205   0.62368   0.51743   1.000
    N49     N    0.40728   0.17238   0.37685   1.000
    O50     O    0.44236   0.22924   0.35421   1.000
    O51     O    0.33665   0.16073   0.38641   1.000
    N52     N    0.40722   0.32751   0.87689   1.000
    O53     O    0.44236   0.27065   0.85427   1.000
    O54     O    0.33658   0.33917   0.88643   1.000
    N55     N    0.90713   0.32748   0.62305   1.000
    O56     O    0.83651   0.33912   0.61351   1.000
    O57     O    0.94230   0.27063   0.64569   1.000
    N58     N    0.90730   0.17235   0.12300   1.000
    O59     O    0.94238   0.22921   0.14568   1.000
    O60     O    0.83666   0.16070   0.11349   1.000
    N61     N    0.13432   0.51440   0.80216   1.000
    O62     O    0.08313   0.56479   0.80649   1.000
    O63     O    0.15837   0.46335   0.83941   1.000
    N64     N    0.59277   0.67251   0.12305   1.000
    O65     O    0.55763   0.72937   0.14569   1.000
    O66     O    0.66340   0.66086   0.11351   1.000
    N67     N    0.38904   0.69458   0.83714   1.000
    O68     O    0.42524   0.68479   0.78552   1.000
    O69     O    0.35894   0.75328   0.86138   1.000
    N70     N    0.61098   0.19441   0.66283   1.000
    O71     O    0.57479   0.18463   0.71424   1.000
    O72     O    0.64102   0.25312   0.63860   1.000
    N73     N    0.36582   0.01434   0.80221   1.000
    O74     O    0.41699   0.06469   0.80653   1.000
    O75     O    0.34168   0.96337   0.83945   1.000
    N76     N    0.36572   0.48570   0.30212   1.000
    O77     O    0.34167   0.53674   0.33938   1.000
    O78     O    0.41689   0.43528   0.30645   1.000
    N79     N    0.83367   0.61612   0.92328   1.000
    O80     O    0.88830   0.63294   0.88626   1.000
    O81     O    0.82200   0.62363   0.98253   1.000
    N82     N    0.11107   0.19446   0.83707   1.000
    O83     O    0.07485   0.18467   0.78567   1.000
    O84     O    0.14111   0.25316   0.86131   1.000
    N85     N    0.38901   0.80561   0.33712   1.000
    O86     O    0.35897   0.74691   0.36136   1.000
    O87     O    0.42520   0.81540   0.28572   1.000
    N88     N    0.86567   0.48562   0.19779   1.000
    O89     O    0.91686   0.43523   0.19347   1.000
    O90     O    0.84162   0.53668   0.16055   1.000
    N91     N    0.83345   0.88400   0.42325   1.000
    O92     O    0.82182   0.87649   0.48251   1.000
    O93     O    0.88813   0.86719   0.38627   1.000
    N94     N    0.16655   0.11603   0.57669   1.000
    O95     O    0.17817   0.12353   0.51745   1.000
    O96     O    0.11186   0.13283   0.61369   1.000
    N97     N    0.86582   0.01438   0.69772   1.000
    O98     O    0.91699   0.06472   0.69341   1.000
    O99     O    0.84168   0.96339   0.66049   1.000
    N100    N    0.63427   0.51433   0.69784   1.000
    O101    O    0.65832   0.46328   0.66058   1.000
    O102    O    0.58310   0.56474   0.69329   1.000
    N103    N    0.88902   0.69458   0.66285   1.000
    O104    O    0.85892   0.75328   0.63861   1.000
    O105    O    0.92522   0.68479   0.71426   1.000
    N106    N    0.66657   0.11601   0.92313   1.000
    O107    O    0.61187   0.13281   0.88619   1.000
    O108    O    0.67818   0.12350   0.98243   1.000
    N109    N    0.09270   0.82767   0.87687   1.000
    O110    O    0.05761   0.77081   0.85424   1.000
    O111    O    0.16333   0.83932   0.88644   1.000
loop_
    _geom_bond_atom_site_label_1
    _geom_bond_atom_site_label_2
    _geom_bond_distance
    _geom_bond_site_symmetry_2
    _ccdc_geom_bond_type
    N16    O17       1.12057      .   S
    Zr10   O17       2.11817  1_556   S
    N16    O18       1.12212      .   S
    Zr13   O18       2.12619      .   S
    N19    O20       1.11744      .   S
    Zr7    O20       2.11244      .   S
    N19    O21       1.12492      .   S
    Zr12   O21       2.13421      .   S
    N22    O23       1.12191      .   S
    Zr13   O23       2.12460      .   S
    N22    O24       1.12068  1_565   S
    Zr2    O24       2.12366      .   S
    N25    O26       1.12191      .   S
    Zr9    O26       2.12573      .   S
    N25    O27       1.12051      .   S
    Zr14   O27       2.11801      .   S
    N28    O29       1.11713      .   S
    Zr3    O29       2.11201      .   S
    N28    O30       1.12490      .   S
    Zr8    O30       2.13397      .   S
    N31    O32       1.12188      .   S
    Zr7    O32       2.12452  1_655   S
    N31    O33       1.12072  1_565   S
    Zr8    O33       2.12359      .   S
    N34    O35       1.11742      .   S
    Zr9    O35       2.11238      .   S
    N34    O36       1.12474      .   S
    Zr2    O36       2.13375      .   S
    N37    O38       1.12384      .   S
    Zr1    O38       2.12797      .   S
    N37    O39       1.12425      .   S
    Zr0    O39       2.12663      .   S
    N40    O41       1.12492      .   S
    Zr7    O41       2.13162  1_655   S
    N40    O42       1.12404      .   S
    Zr6    O42       2.12607      .   S
    N43    O44       1.12044      .   S
    Zr4    O44       2.11800  1_556   S
    N43    O45       1.12196      .   S
    Zr3    O45       2.12585      .   S
    N46    O47       1.11938      .   S
    Zr1    O47       2.11782      .   S
    N46    O48       1.12045      .   S
    Zr6    O48       2.11787      .   S
    N49    O50       1.12533      .   S
    Zr9    O50       2.13234      .   S
    N49    O51       1.12425      .   S
    Zr8    O51       2.12674      .   S
    N52    O53       1.12515      .   S
    Zr5    O53       2.13181      .   S
    N52    O54       1.12403      .   S
    Zr4    O54       2.12634      .   S
    N55    O56       1.12390      .   S
    Zr14   O56       2.12592      .   S
    N55    O57       1.12527      .   S
    Zr15   O57       2.13196  1_455   S
    N58    O59       1.12569      .   S
    Zr3    O59       2.13274  1_455   S
    N58    O60       1.12418      .   S
    Zr2    O60       2.12669      .   S
    N61    O62       1.12192      .   S
    Zr11   O62       2.12443  1_655   S
    N61    O63       1.12084      .   S
    Zr4    O63       2.12362      .   S
    N64    O65       1.12526      .   S
    Zr13   O65       2.13193      .   S
    N64    O66       1.12402      .   S
    Zr12   O66       2.12622      .   S
    N67    O68       1.12090      .   S
    Zr1    O68       2.12317      .   S
    N67    O69       1.12478      .   S
    Zr10   O69       2.13383      .   S
    N70    O71       1.11750      .   S
    Zr5    O71       2.11254      .   S
    N70    O72       1.12496      .   S
    Zr14   O72       2.13434      .   S
    N73    O74       1.12192      .   S
    Zr5    O74       2.12462      .   S
    N73    O75       1.12074  1_545   S
    Zr10   O75       2.12376      .   S
    N76    O77       1.12072      .   S
    Zr6    O77       2.12347      .   S
    N76    O78       1.12190      .   S
    Zr9    O78       2.12437      .   S
    N79    O80       1.12208      .   S
    Zr11   O80       2.12550      .   S
    N79    O81       1.12059      .   S
    Zr12   O81       2.11815  1_554   S
    N82    O83       1.11742      .   S
    Zr15   O83       2.11236      .   S
    N82    O84       1.12493      .   S
    Zr4    O84       2.13425      .   S
    N85    O86       1.12500      .   S
    Zr6    O86       2.13441      .   S
    N85    O87       1.11736      .   S
    Zr13   O87       2.11240      .   S
    N88    O89       1.12189      .   S
    Zr3    O89       2.12438  1_455   S
    N88    O90       1.12074      .   S
    Zr12   O90       2.12355      .   S
    N91    O92       1.12051      .   S
    Zr0    O92       2.11802      .   S
    N91    O93       1.12202      .   S
    Zr7    O93       2.12601      .   S
    N94    O95       1.12029      .   S
    Zr8    O95       2.11780      .   S
    N94    O96       1.12214      .   S
    Zr15   O96       2.12621      .   S
    N97    O98       1.12188      .   S
    Zr15   O98       2.12450  1_455   S
    N97    O99       1.12063  1_545   S
    Zr0    O99       2.12351      .   S
    N100   O101      1.12066      .   S
    Zr14   O101      2.12336      .   S
    N100   O102      1.12221      .   S
    Zr1    O102      2.12515      .   S
    N103   O104      1.12477      .   S
    Zr0    O104      2.13382      .   S
    N103   O105      1.11745      .   S
    Zr11   O105      2.11240      .   S
    N106   O107      1.12159      .   S
    Zr5    O107      2.12565      .   S
    N106   O108      1.12140      .   S
    Zr2    O108      2.11908  1_554   S
    N109   O110      1.12544      .   S
    Zr11   O110      2.13236  1_655   S
    N109   O111      1.12429      .   S
    Zr10   O111      2.12680      .   S
