# CIF file generated by openbabel 2.4.90, see http://openbabel.sf.net
data_I
_chemical_name_common ''
_cell_length_a 18.425
_cell_length_b 18.43
_cell_length_c 18.431
_cell_angle_alpha 60.151
_cell_angle_beta 60.163
_cell_angle_gamma 60.161
_space_group_name_H-M_alt 'P 1'
_space_group_name_Hall 'P 1'
loop_
    _symmetry_equiv_pos_as_xyz
    x,y,z
loop_
    _atom_site_label
    _atom_site_type_symbol
    _atom_site_fract_x
    _atom_site_fract_y
    _atom_site_fract_z
    _atom_site_occupancy
    Zn0     Zn   0.29363   0.29367   0.29364   1.000
    Zn1     Zn   0.11953   0.29335   0.29332   1.000
    Zn2     Zn   0.29336   0.11955   0.29326   1.000
    Zn3     Zn   0.70662   0.70670   0.88040   1.000
    Zn4     Zn   0.70633   0.70632   0.70635   1.000
    Zn5     Zn   0.70661   0.88044   0.70673   1.000
    Zn6     Zn   0.88044   0.70664   0.70666   1.000
    H7      H    0.45180   0.45127   0.93200   1.000
    H8      H    0.45194   0.45255   0.16431   1.000
    H9      H    0.93184   0.16434   0.45208   1.000
    H10     H    0.16436   0.93184   0.45155   1.000
    H11     H    0.45182   0.93187   0.16433   1.000
    H12     H    0.45180   0.16434   0.93180   1.000
    H13     H    0.93188   0.45160   0.45150   1.000
    H14     H    0.16435   0.45219   0.45229   1.000
    H15     H    0.45195   0.16433   0.45254   1.000
    H16     H    0.45183   0.93199   0.45124   1.000
    H17     H    0.93184   0.45211   0.16433   1.000
    H18     H    0.16436   0.45151   0.93186   1.000
    H19     H    0.54817   0.54872   0.06799   1.000
    H20     H    0.54803   0.54744   0.83567   1.000
    H21     H    0.83561   0.06815   0.54844   1.000
    H22     H    0.06812   0.83564   0.54791   1.000
    H23     H    0.06813   0.54787   0.83566   1.000
    H24     H    0.83560   0.54848   0.06813   1.000
    H25     H    0.54814   0.06800   0.54874   1.000
    H26     H    0.54802   0.83566   0.54745   1.000
    H27     H    0.83561   0.54779   0.54770   1.000
    H28     H    0.06808   0.54839   0.54841   1.000
    H29     H    0.54815   0.06812   0.83566   1.000
    H30     H    0.54817   0.83565   0.06810   1.000
    C31     C    0.47329   0.47299   0.96102   1.000
    Zn32    Zn   0.29335   0.29329   0.11953   1.000
    C33     C    0.47338   0.47371   0.09233   1.000
    C34     C    0.96091   0.09235   0.47346   1.000
    C35     C    0.09236   0.96091   0.47316   1.000
    C36     C    0.47331   0.96093   0.09234   1.000
    C37     C    0.47330   0.09235   0.96000   1.000
    C38     C    0.96096   0.47317   0.47317   1.000
    C39     C    0.09235   0.47351   0.47357   1.000
    C40     C    0.47339   0.09234   0.47370   1.000
    C41     C    0.47331   0.96102   0.47298   1.000
    C42     C    0.96090   0.47348   0.09234   1.000
    C43     C    0.09236   0.47314   0.96092   1.000
    C44     C    0.52667   0.52700   0.03897   1.000
    C45     C    0.52659   0.52627   0.90766   1.000
    C46     C    0.90761   0.03907   0.52683   1.000
    C47     C    0.03906   0.90764   0.52653   1.000
    C48     C    0.03907   0.52651   0.90765   1.000
    C49     C    0.90761   0.52685   0.03907   1.000
    C50     C    0.52666   0.03897   0.52701   1.000
    C51     C    0.52658   0.90765   0.52628   1.000
    C52     C    0.90762   0.52648   0.52640   1.000
    C53     C    0.03901   0.52682   0.52682   1.000
    C54     C    0.52666   0.03906   0.90765   1.000
    C55     C    0.52667   0.90764   0.03909   1.000
    C56     C    0.38900   0.38905   0.11107   1.000
    C57     C    0.44634   0.44637   0.05370   1.000
    C58     C    0.11094   0.11091   0.38879   1.000
    C59     C    0.05362   0.05360   0.44620   1.000
    C60     C    0.38883   0.11093   0.11087   1.000
    C61     C    0.44628   0.05362   0.05358   1.000
    C62     C    0.11105   0.38902   0.38905   1.000
    C63     C    0.05370   0.44634   0.44638   1.000
    C64     C    0.38904   0.11109   0.38000   1.000
    C65     C    0.44636   0.05371   0.44634   1.000
    C66     C    0.11094   0.38882   0.11090   1.000
    C67     C    0.05362   0.44628   0.05360   1.000
    C68     C    0.61097   0.61094   0.88890   1.000
    C69     C    0.55363   0.55362   0.94628   1.000
    C70     C    0.88902   0.88908   0.61119   1.000
    C71     C    0.94634   0.94638   0.55371   1.000
    C72     C    0.88903   0.61117   0.88909   1.000
    C73     C    0.94635   0.55370   0.94639   1.000
    C74     C    0.61092   0.88890   0.61000   1.000
    C75     C    0.55360   0.94627   0.55365   1.000
    C76     C    0.88891   0.61097   0.61093   1.000
    C77     C    0.94627   0.55365   0.55360   1.000
    C78     C    0.61115   0.88905   0.88912   1.000
    C79     C    0.55369   0.94636   0.94641   1.000
    O80     O    0.25001   0.25001   0.24990   1.000
    O81     O    0.74996   0.74998   0.75000   1.000
    O82     O    0.36674   0.36685   0.07146   1.000
    O83     O    0.36704   0.36708   0.19486   1.000
    O84     O    0.07135   0.19469   0.36657   1.000
    O85     O    0.19474   0.07131   0.36660   1.000
    O86     O    0.36668   0.07134   0.19465   1.000
    O87     O    0.36665   0.19472   0.07127   1.000
    O88     O    0.07142   0.36683   0.36600   1.000
    O89     O    0.19487   0.36703   0.36710   1.000
    O90     O    0.36719   0.19489   0.36691   1.000
    O91     O    0.36671   0.07148   0.36686   1.000
    O92     O    0.07135   0.36656   0.19467   1.000
    O93     O    0.19473   0.36676   0.07130   1.000
    O94     O    0.63322   0.63314   0.92852   1.000
    O95     O    0.63293   0.63291   0.80512   1.000
    O96     O    0.80523   0.92868   0.63331   1.000
    O97     O    0.92862   0.80530   0.63342   1.000
    O98     O    0.92862   0.63343   0.80531   1.000
    O99     O    0.80524   0.63323   0.92869   1.000
    O100    O    0.63326   0.92851   0.63312   1.000
    O101    O    0.63279   0.80510   0.63307   1.000
    O102    O    0.80509   0.63295   0.63289   1.000
    O103    O    0.92854   0.63316   0.63320   1.000
    O104    O    0.63328   0.92864   0.80534   1.000
    O105    O    0.63330   0.80527   0.92872   1.000
loop_
    _geom_bond_atom_site_label_1
    _geom_bond_atom_site_label_2
    _geom_bond_distance
    _geom_bond_site_symmetry_2
    _ccdc_geom_bond_type
    C44    H19       1.08858      .   S
    C44    C33       1.39035      .   S
    C44    C69       1.40348  1_554   S
    C49    H24       1.08859      .   S
    C49    C42       1.39016      .   S
    C49    C73       1.40323  1_554   S
    C55    H30       1.08849      .   S
    C55    C36       1.39029      .   S
    C55    C79       1.40318  1_554   S
    C61    C36       1.40335  1_545   S
    C61    C60       1.49546      .   S
    C61    C37       1.41628  1_554   S
    C67    C42       1.40354  1_455   S
    C67    C66       1.49522      .   S
    C67    C43       1.40323  1_554   S
    C57    C33       1.40323      .   S
    C57    C56       1.49576      .   S
    C57    C31       1.40332  1_554   S
    O87    C60       1.27715      .   S
    O87    Zn32      1.97157      .   S
    O93    C66       1.27710      .   S
    O93    Zn32      1.97131      .   S
    O82    C56       1.27708      .   S
    O82    Zn32      1.97175      .   S
    C33    H8        1.08856      .   S
    C36    H11       1.08859      .   S
    C42    H17       1.08860      .   S
    C60    O86       1.27712      .   S
    C66    O92       1.27704      .   S
    C56    O83       1.27727      .   S
    Zn32   O80       1.96577      .   S
    O86    Zn2       1.97162      .   S
    O92    Zn1       1.97147      .   S
    O83    Zn0       1.97308      .   S
    O80    Zn2       1.96698      .   S
    Zn2    O85       1.97146      .   S
    Zn2    O91       1.97184      .   S
    Zn1    O88       1.96055      .   S
    Zn1    O84       1.97154      .   S
    Zn0    O90       1.97316      .   S
    Zn0    O89       1.97349      .   S
    O88    C62       1.28836      .   S
    O84    C58       1.27712      .   S
    O85    C58       1.27711      .   S
    O91    C64       1.15538      .   S
    O90    C64       1.30861      .   S
    O89    C62       1.27736      .   S
    C64    C65       1.61711      .   S
    C58    C59       1.49527      .   S
    C62    C63       1.49609      .   S
    C59    C35       1.40330  1_545   S
    C59    C34       1.40354  1_455   S
    C65    C41       1.40349  1_545   S
    C65    C40       1.40319      .   S
    C63    C38       1.40377  1_455   S
    C63    C39       1.40322      .   S
    H16    C41       1.08869      .   S
    H13    C38       1.08976      .   S
    H10    C35       1.08860      .   S
    H9     C34       1.08858      .   S
    H14    C39       1.08863      .   S
    H15    C40       1.08860      .   S
    C41    C51       1.39034      .   S
    C35    C47       1.39020      .   S
    C38    C52       1.39023      .   S
    C34    C46       1.39022      .   S
    C39    C53       1.39048      .   S
    C40    C50       1.39046      .   S
    C51    H26       1.08861      .   S
    C51    C75       1.40323      .   S
    C52    H27       1.08860      .   S
    C52    C77       1.40345      .   S
    C47    H22       1.08858      .   S
    C47    C71       1.40355  1_455   S
    C53    H28       1.08864      .   S
    C53    C77       1.40379  1_455   S
    C46    H21       1.08860      .   S
    C46    C71       1.40330  1_545   S
    C50    H25       1.08852      .   S
    C50    C75       1.40350  1_545   S
    C77    C76       1.49607      .   S
    C75    C74       1.48292      .   S
    C71    C70       1.49528      .   S
    C74    O101      1.27510      .   S
    C74    O100      1.29115      .   S
    C76    O102      1.27735      .   S
    C76    O103      1.27720      .   S
    C70    O96       1.27711      .   S
    C70    O97       1.27712      .   S
    O102   Zn4       1.97353      .   S
    O101   Zn4       1.97321      .   S
    O100   Zn5       1.97196      .   S
    O103   Zn6       1.97217      .   S
    O96    Zn5       1.97145      .   S
    O97    Zn6       1.97154      .   S
    Zn4    O95       1.97303      .   S
    Zn6    O98       1.97146      .   S
    Zn5    O81       1.96700      .   S
    Zn5    O104      1.97161      .   S
    O81    Zn3       1.96623      .   S
    O95    C68       1.27710      .   S
    O98    C72       1.27718      .   S
    O104   C78       1.27712      .   S
    H23    C48       1.08860      .   S
    H29    C54       1.08859      .   S
    H20    C45       1.08872      .   S
    Zn3    O94       1.97151      .   S
    Zn3    O99       1.97193      .   S
    Zn3    O105      1.97220      .   S
    C68    O94       1.27726      .   S
    C68    C69       1.49576      .   S
    C72    O99       1.27710      .   S
    C72    C73       1.49522      .   S
    C78    O105      1.27715      .   S
    C78    C79       1.49547      .   S
    C54    C79       1.40334  1_545   S
    C54    C37       1.37863      .   S
    C48    C73       1.40354  1_455   S
    C48    C43       1.39016      .   S
    C45    C69       1.40306      .   S
    C45    C31       1.39035      .   S
    H12    C37       1.08762      .   S
    H18    C43       1.08859      .   S
    H7     C31       1.08858      .   S
    O80    Zn0       1.96913      .   S
    O80    Zn1       1.96705      .   S
    O81    Zn4       1.96780      .   S
    O81    Zn6       1.96705      .   S
