# CIF file generated by openbabel 2.4.90, see http://openbabel.sf.net
data_I
_chemical_name_common ''
_cell_length_a 21.644
_cell_length_b 13.83
_cell_length_c 13.69
_cell_angle_alpha 90.487
_cell_angle_beta 89.967
_cell_angle_gamma 90.27
_space_group_name_H-M_alt 'P 1'
_space_group_name_Hall 'P 1'
loop_
    _symmetry_equiv_pos_as_xyz
    x,y,z
loop_
    _atom_site_label
    _atom_site_type_symbol
    _atom_site_fract_x
    _atom_site_fract_y
    _atom_site_fract_z
    _atom_site_occupancy
    Mc0     Mc   0.51463   0.38173   0.08720   1.000
    Mc1     Mc   0.23321   0.08734   0.11742   1.000
    Mc2     Mc   0.23308   0.41580   0.38191   1.000
    Mc3     Mc   0.51322   0.12079   0.41027   1.000
    Mc4     Mc   0.48682   0.87922   0.58968   1.000
    Mc5     Mc   0.76699   0.58422   0.61804   1.000
    Mc6     Mc   0.48541   0.61828   0.91275   1.000
    Mc7     Mc   0.76682   0.91268   0.88253   1.000
    Mc8     Mc   0.01405   0.38144   0.08730   1.000
    Mc9     Mc   0.73237   0.08735   0.11737   1.000
    Mc10    Mc   0.73279   0.41563   0.38166   1.000
    Mc11    Mc   0.01268   0.12074   0.41005   1.000
    Mc12    Mc   0.98654   0.87928   0.58991   1.000
    Mc13    Mc   0.26724   0.58441   0.61830   1.000
    Mc14    Mc   0.26765   0.91268   0.88256   1.000
    Mc15    Mc   0.98543   0.61858   0.91266   1.000
