# CIF file generated by openbabel 2.4.90, see http://openbabel.sf.net
data_I
_chemical_name_common ''
_cell_length_a 7.962
_cell_length_b 14.332
_cell_length_c 14.571
_cell_angle_alpha 89.469
_cell_angle_beta 85.678
_cell_angle_gamma 89.185
_space_group_name_H-M_alt 'P 1'
_space_group_name_Hall 'P 1'
loop_
    _symmetry_equiv_pos_as_xyz
    x,y,z
loop_
    _atom_site_label
    _atom_site_type_symbol
    _atom_site_fract_x
    _atom_site_fract_y
    _atom_site_fract_z
    _atom_site_occupancy
    Lv0     Lv   0.45583   0.74799   0.26576   1.000
    Lv1     Lv   0.06705   0.24100   0.23476   1.000
    Lv2     Lv   0.54203   0.24883   0.23416   1.000
    Lv3     Lv   0.06699   0.25778   0.73700   1.000
    Lv4     Lv   0.94955   0.74216   0.26313   1.000
    Lv5     Lv   0.54655   0.25191   0.73437   1.000
    Lv6     Lv   0.46311   0.75098   0.76585   1.000
    Lv7     Lv   0.95396   0.75874   0.76544   1.000
