# CIF file generated by openbabel 2.4.90, see http://openbabel.sf.net
data_I
_chemical_name_common ''
_cell_length_a 6.045
_cell_length_b 14.041
_cell_length_c 15.6335
_cell_angle_alpha 90.032
_cell_angle_beta 90.648
_cell_angle_gamma 90.003
_space_group_name_H-M_alt 'P 1'
_space_group_name_Hall 'P 1'
loop_
    _symmetry_equiv_pos_as_xyz
    x,y,z
loop_
    _atom_site_label
    _atom_site_type_symbol
    _atom_site_fract_x
    _atom_site_fract_y
    _atom_site_fract_z
    _atom_site_occupancy
    H0      H    0.84748   0.30082   0.67902   1.000
    H1      H    0.82311   0.18334   0.80893   1.000
    H2      H    0.65218   0.79923   0.82224   1.000
    H3      H    0.67685   0.68252   0.69164   1.000
    H4      H    0.15261   0.69916   0.32098   1.000
    H5      H    0.17698   0.81664   0.19107   1.000
    H6      H    0.34789   0.20076   0.17777   1.000
    H7      H    0.32322   0.31746   0.30836   1.000
    C8      C    0.22850   0.13250   0.89706   1.000
    C9      C    0.18024   0.19662   0.82467   1.000
    C10     C    0.97617   0.21478   0.78657   1.000
    C11     C    0.98964   0.27864   0.71737   1.000
    C12     C    0.20406   0.31014   0.70375   1.000
    C13     C    0.28764   0.37733   0.63836   1.000
    C14     C    0.27160   0.63238   0.60294   1.000
    C15     C    0.31978   0.69586   0.67585   1.000
    C16     C    0.52372   0.71379   0.71413   1.000
    C17     C    0.51015   0.77726   0.78369   1.000
    C18     C    0.29566   0.80861   0.79744   1.000
    C19     C    0.21206   0.87567   0.86298   1.000
    C20     C    0.77158   0.86749   0.10294   1.000
    C21     C    0.81984   0.80336   0.17533   1.000
    C22     C    0.02392   0.78521   0.21343   1.000
    C23     C    0.01043   0.72135   0.28263   1.000
    C24     C    0.79601   0.68984   0.29625   1.000
    C25     C    0.71244   0.62266   0.36165   1.000
    C26     C    0.72847   0.36761   0.39706   1.000
    C27     C    0.68028   0.30412   0.32415   1.000
    C28     C    0.47634   0.28619   0.28587   1.000
    C29     C    0.48992   0.22273   0.21631   1.000
    C30     C    0.70441   0.19138   0.20256   1.000
    C31     C    0.78801   0.12432   0.13702   1.000
    S32     S    0.38823   0.26015   0.77606   1.000
    S33     S    0.11159   0.75891   0.72488   1.000
    S34     S    0.61184   0.73984   0.22394   1.000
    S35     S    0.88848   0.24108   0.27513   1.000
    O36     O    0.42887   0.11604   0.91856   1.000
    O37     O    0.06421   0.09591   0.93688   1.000
    O38     O    0.49435   0.39472   0.63957   1.000
    O39     O    0.14736   0.41290   0.58524   1.000
    O40     O    0.07120   0.61606   0.58137   1.000
    O41     O    0.43582   0.59623   0.56274   1.000
    O42     O    0.00476   0.89166   0.86288   1.000
    O43     O    0.35297   0.91273   0.91503   1.000
    O44     O    0.57121   0.88395   0.08144   1.000
    O45     O    0.93585   0.90408   0.06312   1.000
    O46     O    0.50572   0.60527   0.36043   1.000
    O47     O    0.85271   0.58709   0.41476   1.000
    O48     O    0.92887   0.38393   0.41863   1.000
    O49     O    0.56424   0.40376   0.43726   1.000
    O50     O    0.99533   0.10833   0.13711   1.000
    O51     O    0.64711   0.08726   0.08497   1.000
loop_
    _geom_bond_atom_site_label_1
    _geom_bond_atom_site_label_2
    _geom_bond_distance
    _geom_bond_site_symmetry_2
    _ccdc_geom_bond_type
    O45    C20       1.28529      .   S
    O44    C20       1.27450      .   S
    O51    C31       1.28148      .   S
    C20    C21       1.47326      .   S
    C31    O50       1.27320      .   S
    C31    C30       1.48413      .   S
    C21    C22       1.38745  1_655   S
    C21    S34       1.72517      .   S
    H6     C29       1.08787      .   S
    H5     C22       1.08649      .   S
    C30    C29       1.38828      .   S
    C30    S35       1.72694      .   S
    C22    C23       1.40867      .   S
    C29    C28       1.40870      .   S
    S34    C24       1.72703      .   S
    S35    C27       1.72515      .   S
    C23    C24       1.38829  1_455   S
    C23    H4        1.08800      .   S
    C28    H7        1.08646      .   S
    C28    C27       1.38724      .   S
    C24    C25       1.48432      .   S
    C27    C26       1.47312      .   S
    O46    C25       1.27313      .   S
    C25    O47       1.28163      .   S
    C26    O48       1.27452      .   S
    C26    O49       1.28526      .   S
    O41    C14       1.28528      .   S
    O40    C14       1.27453      .   S
    O39    C13       1.28163      .   S
    C14    C15       1.47309      .   S
    C13    O38       1.27313      .   S
    C13    C12       1.48429      .   S
    C15    C16       1.38723      .   S
    C15    S33       1.72517      .   S
    H0     C11       1.08792      .   S
    H3     C16       1.08645      .   S
    C12    C11       1.38829  1_455   S
    C12    S32       1.72705      .   S
    C16    C17       1.40870      .   S
    C11    C10       1.40863      .   S
    S33    C18       1.72693      .   S
    S32    C9        1.72517      .   S
    C17    C18       1.38827      .   S
    C17    H2        1.08787      .   S
    C10    H1        1.08650      .   S
    C10    C9        1.38743  1_655   S
    C18    C19       1.48415      .   S
    C9     C8        1.47323      .   S
    O42    C19       1.27308      .   S
    C19    O43       1.28148      .   S
    C8     O36       1.27451      .   S
    C8     O37       1.28529      .   S
