# CIF file generated by openbabel 2.4.90, see http://openbabel.sf.net
data_I
_chemical_name_common ''
_cell_length_a 9.8895
_cell_length_b 14.0466
_cell_length_c 14.0477
_cell_angle_alpha 82.8964
_cell_angle_beta 69.3924
_cell_angle_gamma 69.4098
_space_group_name_H-M_alt 'P 1'
_space_group_name_Hall 'P 1'
loop_
    _symmetry_equiv_pos_as_xyz
    x,y,z
loop_
    _atom_site_label
    _atom_site_type_symbol
    _atom_site_fract_x
    _atom_site_fract_y
    _atom_site_fract_z
    _atom_site_occupancy
    H0      H    0.80237   0.71312   0.38908   1.000
    H1      H    0.22069   0.16329   0.90458   1.000
    H2      H    0.90436   0.28710   0.61089   1.000
    H3      H    0.29002   0.83683   0.09533   1.000
    H4      H    0.48431   0.61099   0.71316   1.000
    H5      H    0.61462   0.09532   0.16328   1.000
    H6      H    0.80841   0.38932   0.28725   1.000
    H7      H    0.87555   0.90459   0.83673   1.000
    H8      H    0.40431   0.61090   0.28711   1.000
    H9      H    0.79048   0.09535   0.83683   1.000
    H10     H    0.30239   0.38907   0.71316   1.000
    H11     H    0.72057   0.90457   0.16327   1.000
    H12     H    0.30838   0.28722   0.38932   1.000
    H13     H    0.37513   0.83675   0.90457   1.000
    H14     H    0.98430   0.71315   0.61099   1.000
    H15     H    0.11468   0.16329   0.09532   1.000
    H16     H    0.86360   0.77255   0.50042   1.000
    H17     H    0.13584   0.22756   0.50039   1.000
    H18     H    0.36365   0.50042   0.77255   1.000
    H19     H    0.63585   0.50038   0.22757   1.000
    C20     C    0.70212   0.71472   0.37320   1.000
    C21     C    0.23212   0.09226   0.94712   1.000
    C22     C    0.78984   0.28547   0.62682   1.000
    C23     C    0.27235   0.90783   0.05278   1.000
    C24     C    0.58303   0.62682   0.71471   1.000
    C25     C    0.67511   0.05279   0.09226   1.000
    C26     C    0.92461   0.37331   0.28554   1.000
    C27     C    0.82141   0.94712   0.90778   1.000
    C28     C    0.28980   0.62682   0.28547   1.000
    C29     C    0.77268   0.05280   0.90783   1.000
    C30     C    0.20213   0.37320   0.71474   1.000
    C31     C    0.73212   0.94711   0.09224   1.000
    C32     C    0.42457   0.28554   0.37332   1.000
    C33     C    0.32110   0.90780   0.94711   1.000
    C34     C    0.08302   0.71470   0.62681   1.000
    C35     C    0.17506   0.09227   0.05279   1.000
    C36     C    0.82259   0.85467   0.50015   1.000
    C37     C    0.17705   0.14544   0.50021   1.000
    C38     C    0.32262   0.50014   0.85468   1.000
    C39     C    0.67706   0.50021   0.14544   1.000
    C40     C    0.36044   0.00002   0.77975   1.000
    C41     C    0.30346   0.00002   0.89369   1.000
    C42     C    0.14000   0.00007   0.22015   1.000
    C43     C    0.19691   0.00005   0.10621   1.000
    C44     C    0.64021   0.22016   0.00007   1.000
    C45     C    0.69709   0.10623   0.00006   1.000
    C46     C    0.86052   0.77977   0.00000   1.000
    C47     C    0.80360   0.89370   1.00000   1.000
    N48     N    0.55710   0.76734   0.42532   1.000
    N49     N    0.47207   0.75133   0.37490   1.000
    N50     N    0.56322   0.69119   0.29597   1.000
    N51     N    0.70974   0.66673   0.29369   1.000
    N52     N    0.67474   0.91200   0.53001   1.000
    N53     N    0.67411   0.00879   0.51769   1.000
    N54     N    0.74947   0.23286   0.57471   1.000
    N55     N    0.59804   0.24886   0.62520   1.000
    N56     N    0.55023   0.30900   0.70413   1.000
    N57     N    0.67006   0.33344   0.70637   1.000
    N58     N    0.11677   0.08807   0.46998   1.000
    N59     N    0.20101   0.99130   0.48190   1.000
    N60     N    0.67540   0.57472   0.76732   1.000
    N61     N    0.77654   0.62509   0.75121   1.000
    N62     N    0.74558   0.70396   0.69100   1.000
    N63     N    0.62348   0.70625   0.66661   1.000
    N64     N    0.41311   0.46995   0.91203   1.000
    N65     N    0.31695   0.48177   0.00880   1.000
    N66     N    0.01759   0.42540   0.23293   1.000
    N67     N    0.15307   0.37481   0.24879   1.000
    N68     N    0.14079   0.29584   0.30883   1.000
    N69     N    0.99648   0.29368   0.33338   1.000
    N70     N    0.79493   0.53021   0.08810   1.000
    N71     N    0.80780   0.51795   0.99133   1.000
    N72     N    0.24944   0.57472   0.23285   1.000
    N73     N    0.09806   0.62522   0.24883   1.000
    N74     N    0.05022   0.70414   0.30897   1.000
    N75     N    0.17003   0.70637   0.33343   1.000
    N76     N    0.61674   0.47001   0.08808   1.000
    N77     N    0.70096   0.48196   0.99132   1.000
    N78     N    0.05711   0.42533   0.76734   1.000
    N79     N    0.97206   0.37493   0.75131   1.000
    N80     N    0.06321   0.29600   0.69117   1.000
    N81     N    0.20974   0.29370   0.66673   1.000
    N82     N    0.17477   0.53001   0.91202   1.000
    N83     N    0.17415   0.51767   0.00878   1.000
    N84     N    0.51752   0.23293   0.42540   1.000
    N85     N    0.65301   0.24883   0.37483   1.000
    N86     N    0.64073   0.30891   0.29589   1.000
    N87     N    0.49644   0.33343   0.29371   1.000
    N88     N    0.29490   0.08811   0.53021   1.000
    N89     N    0.30780   0.99133   0.51791   1.000
    N90     N    0.17543   0.76734   0.57472   1.000
    N91     N    0.27656   0.75122   0.62508   1.000
    N92     N    0.24558   0.69100   0.70393   1.000
    N93     N    0.12346   0.66660   0.70623   1.000
    N94     N    0.91309   0.91204   0.46998   1.000
    N95     N    0.81692   0.00881   0.48181   1.000
    O96     O    0.35951   0.92531   0.73717   1.000
    O97     O    0.02202   0.07484   0.26278   1.000
    O98     O    0.71567   0.26278   0.92531   1.000
    O99     O    0.90401   0.73718   0.07468   1.000
    O100    O    0.52226   0.26277   0.07485   1.000
    O101    O    0.85959   0.73718   0.92529   1.000
    O102    O    0.40397   0.07471   0.73718   1.000
    O103    O    0.21547   0.92533   0.26276   1.000
loop_
    _geom_bond_atom_site_label_1
    _geom_bond_atom_site_label_2
    _geom_bond_distance
    _geom_bond_site_symmetry_2
    _ccdc_geom_bond_type
    C46    O99       1.27468      .   S
    C46    O101      1.27483  1_554   S
    C46    C47       1.49809  1_554   S
    C45    C44       1.49818      .   S
    C45    C25       1.40157      .   S
    C45    C29       1.40168  1_554   S
    C44    O100      1.27446      .   S
    C44    O98       1.27481  1_554   S
    N83    N65       1.32213      .   S
    N83    N82       1.34701  1_554   S
    N65    N64       1.34704  1_554   S
    C23    H3        1.08904      .   S
    C23    C43       1.40166  1_565   S
    C23    C33       1.38998  1_554   S
    C35    H15       1.08912      .   S
    C35    C43       1.40163      .   S
    C35    C21       1.39000  1_554   S
    N76    C39       1.33637      .   S
    N76    N77       1.34703  1_554   S
    N70    C39       1.33639      .   S
    N70    N71       1.34706  1_554   S
    C31    C25       1.39018  1_565   S
    C31    H11       1.08909      .   S
    C31    C47       1.40156  1_554   S
    C25    H5        1.08912      .   S
    C43    C42       1.49819      .   S
    C39    H19       1.07989      .   S
    C42    O103      1.27478  1_545   S
    C42    O97       1.27467      .   S
    N72    N73       1.36043      .   S
    N72    C28       1.33718      .   S
    N66    N67       1.36058      .   S
    N66    C26       1.33716  1_455   S
    N67    N68       1.32214      .   S
    N73    N74       1.32208      .   S
    C28    H8        1.08254      .   S
    C28    N75       1.34128      .   S
    C26    H6        1.08255      .   S
    C26    N69       1.34125      .   S
    N51    N50       1.35588      .   S
    N51    C20       1.34121      .   S
    N87    N86       1.35577      .   S
    N87    C32       1.34122      .   S
    N86    N85       1.32215      .   S
    N50    N49       1.32217      .   S
    N68    N69       1.35572  1_455   S
    N74    N75       1.35580      .   S
    C20    H0        1.08259      .   S
    C20    N48       1.33725      .   S
    C32    H12       1.08255      .   S
    C32    N84       1.33720      .   S
    N85    N84       1.36050      .   S
    N49    N48       1.36045      .   S
    N94    N95       1.34727  1_565   S
    N94    C36       1.33632      .   S
    N58    N59       1.34722  1_545   S
    N58    C37       1.33635      .   S
    N95    N53       1.32207      .   S
    N59    N89       1.32210      .   S
    C36    H16       1.07989      .   S
    C36    N52       1.33637      .   S
    C37    H17       1.07989      .   S
    C37    N88       1.33642      .   S
    N53    N52       1.34714  1_545   S
    N89    N88       1.34721  1_565   S
    N54    N55       1.36060      .   S
    N54    C22       1.33720      .   S
    N90    N91       1.36054      .   S
    N90    C34       1.33719      .   S
    H2     C22       1.08254      .   S
    H14    C34       1.08256  1_655   S
    N91    N92       1.32215      .   S
    N55    N56       1.32214      .   S
    C34    N93       1.34122      .   S
    C22    N57       1.34128      .   S
    N63    N62       1.35553      .   S
    N63    C24       1.34119      .   S
    N81    N80       1.35588      .   S
    N81    C30       1.34121      .   S
    N62    N61       1.32218      .   S
    N80    N79       1.32219  1_455   S
    N92    N93       1.35573      .   S
    N56    N57       1.35578      .   S
    H10    C30       1.08260      .   S
    H4     C24       1.08255      .   S
    C24    N60       1.33707      .   S
    C30    N78       1.33725      .   S
    O96    C40       1.27483  1_565   S
    O102   C40       1.27475      .   S
    N61    N60       1.36049      .   S
    N79    N78       1.36044  1_655   S
    H18    C38       1.07989      .   S
    C40    C41       1.49808      .   S
    H7     C27       1.08912      .   S
    H9     C29       1.08905      .   S
    C38    N82       1.33634      .   S
    C38    N64       1.33637      .   S
    C41    C33       1.40160  1_545   S
    C41    C21       1.40178      .   S
    H13    C33       1.08912      .   S
    H1     C21       1.08910      .   S
    C27    C29       1.39015  1_565   S
    C27    C47       1.40160      .   S
    N77    N71       1.32209      .   S
