# CIF file generated by openbabel 2.4.90, see http://openbabel.sf.net
data_I
_chemical_name_common ''
_cell_length_a 13.087
_cell_length_b 16.838
_cell_length_c 13.96
_cell_angle_alpha 105.88
_cell_angle_beta 89.81
_cell_angle_gamma 90.133
_space_group_name_H-M_alt 'P 1'
_space_group_name_Hall 'P 1'
loop_
    _symmetry_equiv_pos_as_xyz
    x,y,z
loop_
    _atom_site_label
    _atom_site_type_symbol
    _atom_site_fract_x
    _atom_site_fract_y
    _atom_site_fract_z
    _atom_site_occupancy
    H0      H    0.34969   0.49274   0.72079   1.000
    H1      H    0.07394   0.49529   0.54848   1.000
    H2      H    0.26951   0.70941   0.62879   1.000
    H3      H    0.24667   0.04042   0.75705   1.000
    H4      H    0.28888   0.27954   0.96373   1.000
    H5      H    0.45512   0.06612   0.00000   1.000
    H6      H    0.85105   0.50594   0.77623   1.000
    H7      H    0.57427   0.50329   0.94883   1.000
    H8      H    0.77111   0.29029   0.87123   1.000
    H9      H    0.74660   0.95911   0.74467   1.000
    H10     H    0.78827   0.72022   0.53746   1.000
    H11     H    0.95791   0.93312   0.50055   1.000
    H12     H    0.65252   0.50632   0.27573   1.000
    H13     H    0.92631   0.50497   0.45116   1.000
    H14     H    0.72948   0.29155   0.37290   1.000
    H15     H    0.75605   0.95694   0.24280   1.000
    H16     H    0.71414   0.71846   0.03472   1.000
    H17     H    0.54684   0.93206   0.99854   1.000
    H18     H    0.15335   0.49335   0.22530   1.000
    H19     H    0.42674   0.49426   0.04742   1.000
    H20     H    0.23062   0.70763   0.12633   1.000
    H21     H    0.25436   0.04090   0.25384   1.000
    H22     H    0.21428   0.27982   0.46172   1.000
    H23     H    0.04527   0.06702   0.49966   1.000
    C24     C    0.31854   0.60603   0.68239   1.000
    C25     C    0.29917   0.52530   0.68264   1.000
    C26     C    0.20921   0.48339   0.63430   1.000
    C27     C    0.14202   0.52668   0.58491   1.000
    C28     C    0.16446   0.60609   0.58215   1.000
    C29     C    0.25257   0.64652   0.63085   1.000
    C30     C    0.35463   0.04415   0.87583   1.000
    C31     C    0.28299   0.07914   0.82357   1.000
    C32     C    0.25842   0.16405   0.85660   1.000
    C33     C    0.30688   0.21385   0.93941   1.000
    C34     C    0.37837   0.17876   0.99377   1.000
    C35     C    0.40042   0.09254   0.96078   1.000
    C36     C    0.82006   0.39322   0.81627   1.000
    C37     C    0.80045   0.47357   0.81495   1.000
    C38     C    0.71016   0.51527   0.86285   1.000
    C39     C    0.64271   0.47213   0.91278   1.000
    C40     C    0.66545   0.39309   0.91660   1.000
    C41     C    0.75397   0.35288   0.86836   1.000
    C42     C    0.85613   0.95528   0.62644   1.000
    C43     C    0.78333   0.92041   0.67825   1.000
    C44     C    0.75801   0.83563   0.64400   1.000
    C45     C    0.80691   0.78583   0.56208   1.000
    C46     C    0.87944   0.82083   0.50812   1.000
    C47     C    0.90243   0.90688   0.54158   1.000
    C48     C    0.68234   0.39393   0.31659   1.000
    C49     C    0.70229   0.47427   0.31515   1.000
    C50     C    0.79182   0.51645   0.36401   1.000
    C51     C    0.85822   0.47361   0.41473   1.000
    C52     C    0.83500   0.39461   0.41864   1.000
    C53     C    0.74710   0.35406   0.36979   1.000
    C54     C    0.64785   0.95379   0.12430   1.000
    C55     C    0.71972   0.91851   0.17610   1.000
    C56     C    0.74472   0.83367   0.14200   1.000
    C57     C    0.69585   0.78408   0.05950   1.000
    C58     C    0.62368   0.81928   0.00000   1.000
    C59     C    0.60170   0.90553   0.03944   1.000
    C60     C    0.18311   0.60553   0.18354   1.000
    C61     C    0.20309   0.52534   0.18536   1.000
    C62     C    0.29267   0.48319   0.13610   1.000
    C63     C    0.35887   0.52575   0.08435   1.000
    C64     C    0.33585   0.60464   0.08021   1.000
    C65     C    0.24808   0.64522   0.12965   1.000
    C66     C    0.14596   0.04479   0.37296   1.000
    C67     C    0.21825   0.07963   0.32062   1.000
    C68     C    0.24388   0.16438   0.35414   1.000
    C69     C    0.19552   0.21424   0.43706   1.000
    C70     C    0.12343   0.17928   0.49145   1.000
    C71     C    0.10038   0.09322   0.45822   1.000
loop_
    _geom_bond_atom_site_label_1
    _geom_bond_atom_site_label_2
    _geom_bond_distance
    _geom_bond_site_symmetry_2
    _ccdc_geom_bond_type
    C58    C59       1.43473      .   S
    C58    C57       1.48672      .   S
    H5     C35       1.07125  1_554   S
    H16    C57       1.09063      .   S
    C59    C54       1.37992      .   S
    C59    H17       1.08847  1_554   S
    H19    C63       1.08879      .   S
    C57    C56       1.38155      .   S
    C64    C63       1.37926      .   S
    C64    C65       1.41523      .   S
    C63    C62       1.43612      .   S
    C54    C55       1.41518      .   S
    H20    C65       1.08935      .   S
    C65    C60       1.41553      .   S
    C62    C61       1.44297      .   S
    C56    C55       1.41531      .   S
    C55    H15       1.08794      .   S
    C60    C61       1.38306      .   S
    C61    H18       1.08868      .   S
    H21    C67       1.08784      .   S
    H12    C49       1.08852      .   S
    C49    C48       1.38277      .   S
    C49    C50       1.44175      .   S
    C48    C53       1.41432      .   S
    C67    C68       1.41469      .   S
    C67    C66       1.41429      .   S
    C68    C69       1.38241      .   S
    C50    C51       1.43632      .   S
    C53    H14       1.08933      .   S
    C53    C52       1.41473      .   S
    C66    C71       1.37982      .   S
    C51    C52       1.37933      .   S
    C51    H13       1.08873      .   S
    C69    H22       1.09059      .   S
    C69    C70       1.43192      .   S
    C71    C70       1.42722      .   S
    C71    H23       1.08855      .   S
    H11    C47       1.08844      .   S
    C46    C47       1.42706      .   S
    C46    C45       1.43223      .   S
    H10    C45       1.09074      .   S
    C47    C42       1.37981      .   S
    H1     C27       1.08883      .   S
    C45    C44       1.37596      .   S
    C28    C27       1.37914      .   S
    C28    C29       1.41546      .   S
    C27    C26       1.43594      .   S
    C42    C43       1.41455      .   S
    H2     C29       1.08945      .   S
    C29    C24       1.41543      .   S
    C26    C25       1.44238      .   S
    C44    C43       1.41472      .   S
    C43    H9        1.08778      .   S
    C24    C25       1.38299      .   S
    C25    H0        1.08858      .   S
    H3     C31       1.08791      .   S
    H6     C37       1.08858      .   S
    C37    C36       1.38260      .   S
    C37    C38       1.44160      .   S
    C36    C41       1.41485      .   S
    C31    C32       1.41428      .   S
    C31    C30       1.41449      .   S
    C32    C33       1.38332      .   S
    C38    C39       1.43625      .   S
    C41    H8        1.08939      .   S
    C41    C40       1.41529      .   S
    C30    C35       1.37948      .   S
    C39    C40       1.37950      .   S
    C39    H7        1.08890      .   S
    C33    H4        1.09068      .   S
    C33    C34       1.43270      .   S
    C35    C34       1.42761      .   S
