# CIF file generated by openbabel 2.4.90, see http://openbabel.sf.net
data_I
_chemical_name_common ''
_cell_length_a 13.075
_cell_length_b 13.975
_cell_length_c 16.924
_cell_angle_alpha 90.001
_cell_angle_beta 90
_cell_angle_gamma 89.9
_space_group_name_H-M_alt 'P 1'
_space_group_name_Hall 'P 1'
loop_
    _symmetry_equiv_pos_as_xyz
    x,y,z
loop_
    _atom_site_label
    _atom_site_type_symbol
    _atom_site_fract_x
    _atom_site_fract_y
    _atom_site_fract_z
    _atom_site_occupancy
    N0      N    0.29400   0.47980   0.08217   1.000
    N1      N    0.79431   0.01899   0.08197   1.000
    N2      N    0.51593   0.78535   0.00259   1.000
    N3      N    0.01767   0.71465   0.00294   1.000
    N4      N    0.55402   0.46421   0.23116   1.000
    N5      N    0.44600   0.03579   0.73115   1.000
    N6      N    0.20570   0.98101   0.91800   1.000
    N7      N    0.79433   0.51897   0.41802   1.000
    N8      N    0.70600   0.52020   0.91783   1.000
    N9      N    0.51589   0.28534   0.49739   1.000
    N10     N    0.98233   0.28533   0.99705   1.000
    N11     N    0.20566   0.48105   0.58203   1.000
    N12     N    0.94618   0.46504   0.73086   1.000
    N13     N    0.94618   0.96501   0.76913   1.000
    N14     N    0.29397   0.97976   0.41785   1.000
    N15     N    0.70599   0.02018   0.58214   1.000
    N16     N    0.98232   0.78532   0.50292   1.000
    N17     N    0.55399   0.96421   0.26885   1.000
    N18     N    0.48402   0.71464   0.50258   1.000
    N19     N    0.48407   0.21466   0.99742   1.000
    N20     N    0.01764   0.21465   0.49708   1.000
    N21     N    0.05235   0.03495   0.23085   1.000
    N22     N    0.44600   0.53579   0.76886   1.000
    N23     N    0.05235   0.53493   0.26915   1.000
    Zr24    Zr   0.52377   0.90777   0.42947   1.000
    O25     O    0.53858   0.93749   0.37983   1.000
    O26     O    0.52928   0.91581   0.37475   1.000
    O27     O    0.51125   0.84149   0.45125   1.000
    O28     O    0.58268   0.94098   0.47761   1.000
    O29     O    0.44910   0.93348   0.42861   1.000
    Zr30    Zr   0.42734   0.51938   0.59612   1.000
    O31     O    0.43846   0.53408   0.65045   1.000
    O32     O    0.44766   0.58115   0.56291   1.000
    O33     O    0.45670   0.44522   0.56668   1.000
    O34     O    0.35275   0.50990   0.58987   1.000
    Zr35    Zr   0.52378   0.40778   0.07052   1.000
    O36     O    0.52930   0.41582   0.12525   1.000
    O37     O    0.58269   0.44099   0.02238   1.000
    O38     O    0.53859   0.43750   0.12017   1.000
    O39     O    0.51128   0.34150   0.04875   1.000
    O40     O    0.44912   0.43350   0.07139   1.000
    Zr41    Zr   0.92844   0.98238   0.59635   1.000
    O42     O    0.85359   0.99171   0.59004   1.000
    O43     O    0.94781   0.91995   0.56319   1.000
    O44     O    0.95801   0.05593   0.56674   1.000
    O45     O    0.93899   0.96725   0.65067   1.000
    Zr46    Zr   0.57265   0.48062   0.40391   1.000
    O47     O    0.54327   0.55477   0.43333   1.000
    O48     O    0.55231   0.41884   0.43710   1.000
    O49     O    0.56155   0.46592   0.34958   1.000
    O50     O    0.64724   0.49011   0.41017   1.000
    Zr51    Zr   0.97765   0.90768   0.92959   1.000
    O52     O    0.05172   0.93383   0.92877   1.000
    O53     O    0.97147   0.91595   0.87489   1.000
    O54     O    0.96258   0.93774   0.88003   1.000
    O55     O    0.99036   0.84146   0.95144   1.000
    O56     O    0.91833   0.94054   0.97757   1.000
    Zr57    Zr   0.97764   0.40768   0.57044   1.000
    O58     O    0.96257   0.43775   0.61999   1.000
    O59     O    0.97146   0.41595   0.62512   1.000
    O60     O    0.99034   0.34145   0.54859   1.000
    O61     O    0.91833   0.44053   0.52244   1.000
    O62     O    0.05170   0.43384   0.57125   1.000
    Zr63    Zr   0.02236   0.09231   0.07042   1.000
    O64     O    0.03706   0.06224   0.11997   1.000
    O65     O    0.02706   0.08403   0.12510   1.000
    O66     O    0.00965   0.15853   0.04852   1.000
    O67     O    0.94829   0.06616   0.07122   1.000
    O68     O    0.08167   0.05945   0.02241   1.000
    Zr69    Zr   0.02236   0.59230   0.42958   1.000
    O70     O    0.00964   0.65852   0.45143   1.000
    O71     O    0.02707   0.58402   0.37490   1.000
    O72     O    0.08166   0.55946   0.47760   1.000
    O73     O    0.03706   0.56223   0.38003   1.000
    O74     O    0.94830   0.56615   0.42878   1.000
    Zr75    Zr   0.07154   0.01758   0.40368   1.000
    O76     O    0.06063   0.03271   0.34934   1.000
    O77     O    0.05216   0.08001   0.43682   1.000
    O78     O    0.04195   0.94404   0.43328   1.000
    O79     O    0.14638   0.00824   0.40998   1.000
    Zr80    Zr   0.42737   0.01938   0.90389   1.000
    O81     O    0.35278   0.00988   0.91015   1.000
    O82     O    0.44769   0.08116   0.93709   1.000
    O83     O    0.43847   0.03408   0.84956   1.000
    O84     O    0.45674   0.94523   0.93332   1.000
    Zr85    Zr   0.92844   0.48241   0.90369   1.000
    O86     O    0.93899   0.46728   0.84935   1.000
    O87     O    0.94782   0.41997   0.93683   1.000
    O88     O    0.85360   0.49174   0.90998   1.000
    O89     O    0.95803   0.55595   0.93330   1.000
    Zr90    Zr   0.07156   0.51758   0.09632   1.000
    O91     O    0.06064   0.53270   0.15066   1.000
    O92     O    0.04197   0.44404   0.06671   1.000
    O93     O    0.14640   0.50825   0.09002   1.000
    O94     O    0.05218   0.58002   0.06318   1.000
    Zr95    Zr   0.57264   0.98063   0.09611   1.000
    O96     O    0.56153   0.96593   0.15044   1.000
    O97     O    0.54327   0.05479   0.06669   1.000
    O98     O    0.64722   0.99013   0.08984   1.000
    O99     O    0.55231   0.91886   0.06291   1.000
    Zr100   Zr   0.47621   0.09222   0.57051   1.000
    O101    O    0.48870   0.15850   0.54873   1.000
    O102    O    0.55087   0.06649   0.57138   1.000
    O103    O    0.47071   0.08418   0.62524   1.000
    O104    O    0.41730   0.05899   0.52237   1.000
    O105    O    0.46141   0.06249   0.62016   1.000
    Zr106   Zr   0.47622   0.59223   0.92900   1.000
    O107    O    0.47071   0.58419   0.87446   1.000
    O108    O    0.46141   0.56250   0.87954   1.000
    O109    O    0.48872   0.65851   0.95096   1.000
    O110    O    0.41731   0.55901   0.97733   1.000
    O111    O    0.55088   0.56650   0.92831   1.000
loop_
    _geom_bond_atom_site_label_1
    _geom_bond_atom_site_label_2
    _geom_bond_distance
    _geom_bond_site_symmetry_2
    _ccdc_geom_bond_type
    Zr24   O25       0.95714      .   S
    N17    O25       1.92566      .   S
    Zr24   O26       0.93574      .   S
    N17    O26       1.94286      .   S
    Zr24   O27       1.01051      .   S
    N18    O27       2.00650      .   S
    Zr24   O28       1.21400      .   S
    N15    O28       2.63826  1_545   S
    Zr24   O29       1.03978      .   S
    N14    O29       2.13570      .   S
    Zr30   O31       0.95328      .   S
    N22    O31       2.00658      .   S
    Zr30   O32       1.06415      .   S
    N18    O32       2.17995      .   S
    Zr30   O33       1.21167      .   S
    N9     O33       2.63817      .   S
    Zr30   O34       0.99014      .   S
    N11    O34       1.97021      .   S
    Zr35   O36       0.93582      .   S
    N4     O36       1.94298      .   S
    Zr35   O37       1.21405      .   S
    N8     O37       2.63848  1_556   S
    Zr35   O38       0.95721      .   S
    N4     O38       1.92579      .   S
    Zr35   O39       1.01044      .   S
    N19    O39       2.00635  1_556   S
    Zr35   O40       1.03975      .   S
    N0     O40       2.13566      .   S
    Zr41   O42       0.99282      .   S
    N15    O42       1.97428  1_545   S
    Zr41   O43       1.06744      .   S
    N16    O43       2.18652      .   S
    Zr41   O44       1.20774  1_565   S
    N20    O44       2.63128  1_455   S
    Zr41   O45       0.95338      .   S
    N13    O45       2.00718      .   S
    Zr46   O47       1.21159      .   S
    N18    O47       2.63798      .   S
    Zr46   O48       1.06411      .   S
    N9     O48       2.17988      .   S
    Zr46   O49       0.95335      .   S
    N4     O49       2.00672      .   S
    Zr46   O50       0.99013      .   S
    N7     O50       1.97026      .   S
    Zr51   O52       1.03584  1_655   S
    N6     O52       2.12736      .   S
    Zr51   O53       0.93642      .   S
    N13    O53       1.94480      .   S
    Zr51   O54       0.95837      .   S
    N13    O54       1.92709      .   S
    Zr51   O55       1.01012      .   S
    N3     O55       2.00628  1_454   S
    Zr51   O56       1.21263      .   S
    N1     O56       2.63570  1_544   S
    Zr57   O58       0.95825      .   S
    N12    O58       1.92669      .   S
    Zr57   O59       0.93612      .   S
    N12    O59       1.94456      .   S
    Zr57   O60       1.01011      .   S
    N20    O60       2.00630  1_455   S
    Zr57   O61       1.21279      .   S
    N7     O61       2.63571      .   S
    Zr57   O62       1.03579  1_655   S
    N11    O62       2.12728      .   S
    Zr63   O64       0.95729      .   S
    N21    O64       1.92523      .   S
    Zr63   O65       0.93469      .   S
    N21    O65       1.94465      .   S
    Zr63   O66       1.01037      .   S
    N10    O66       2.00613  1_656   S
    Zr63   O67       1.03582  1_455   S
    N1     O67       2.12732      .   S
    Zr63   O68       1.21287      .   S
    N6     O68       2.63583  1_566   S
    Zr69   O70       1.01007      .   S
    N16    O70       2.00619  1_655   S
    Zr69   O71       0.93469      .   S
    N23    O71       1.94465      .   S
    Zr69   O72       1.21281      .   S
    N11    O72       2.63572      .   S
    Zr69   O73       0.95726      .   S
    N23    O73       1.92525      .   S
    Zr69   O74       1.03579  1_455   S
    N7     O74       2.12725      .   S
    Zr75   O76       0.95430      .   S
    N21    O76       2.00855      .   S
    Zr75   O77       1.06733      .   S
    N20    O77       2.18652      .   S
    Zr75   O78       1.20767  1_545   S
    N16    O78       2.63115  1_655   S
    Zr75   O79       0.99274      .   S
    N14    O79       1.97417  1_565   S
    Zr80   O81       0.99013      .   S
    N6     O81       1.97021  1_565   S
    Zr80   O82       1.06417      .   S
    N19    O82       2.17999      .   S
    Zr80   O83       0.95330      .   S
    N5     O83       2.00662      .   S
    Zr80   O84       1.21164  1_545   S
    N2     O84       2.63802  1_554   S
    Zr85   O86       0.95367      .   S
    N12    O86       2.00768      .   S
    Zr85   O87       1.06735      .   S
    N10    O87       2.18630      .   S
    Zr85   O88       0.99274      .   S
    N8     O88       1.97417      .   S
    Zr85   O89       1.20763      .   S
    N3     O89       2.63103  1_454   S
    Zr90   O91       0.95430      .   S
    N23    O91       2.00855      .   S
    Zr90   O92       1.20766      .   S
    N10    O92       2.63118  1_656   S
    Zr90   O93       0.99277      .   S
    N0     O93       1.97417      .   S
    Zr90   O94       1.06739      .   S
    N3     O94       2.18642      .   S
    Zr95   O96       0.95328      .   S
    N17    O96       2.00658      .   S
    Zr95   O97       1.21161  1_565   S
    N19    O97       2.63797  1_556   S
    Zr95   O98       0.99014      .   S
    N1     O98       1.97022  1_545   S
    Zr95   O99       1.06418      .   S
    N2     O99       2.18001      .   S
    Zr100  O101      1.01046      .   S
    N9     O101      2.00645      .   S
    Zr100  O102      1.03977      .   S
    N15    O102      2.13566      .   S
    Zr100  O103      0.93582      .   S
    N5     O103      1.94297      .   S
    Zr100  O104      1.21412      .   S
    N14    O104      2.63840  1_565   S
    Zr100  O105      0.95721      .   S
    N5     O105      1.92578      .   S
    Zr106  O107      0.93272      .   S
    N22    O107      1.93812      .   S
    Zr106  O108      0.95443      .   S
    N22    O108      1.92068      .   S
    Zr106  O109      1.01160      .   S
    N2     O109      2.00862  1_554   S
    Zr106  O110      1.21614      .   S
    N0     O110      2.64188  1_554   S
    Zr106  O111      1.03972      .   S
    N8     O111      2.13525      .   S
