# CIF file generated by openbabel 2.4.90, see http://openbabel.sf.net
data_I
_chemical_name_common ''
_cell_length_a 18.087
_cell_length_b 18.087
_cell_length_c 17.825
_cell_angle_alpha 90
_cell_angle_beta 89.999
_cell_angle_gamma 119.981
_space_group_name_H-M_alt 'P 1'
_space_group_name_Hall 'P 1'
loop_
    _symmetry_equiv_pos_as_xyz
    x,y,z
loop_
    _atom_site_label
    _atom_site_type_symbol
    _atom_site_fract_x
    _atom_site_fract_y
    _atom_site_fract_z
    _atom_site_occupancy
    Mc0     Mc   0.46217   0.77969   0.06150   1.000
    Mc1     Mc   0.53759   0.81736   0.93839   1.000
    Mc2     Mc   0.81736   0.53759   0.43840   1.000
    Mc3     Mc   0.77968   0.46216   0.56152   1.000
    Mc4     Mc   0.68255   0.72017   0.56159   1.000
    Mc5     Mc   0.72018   0.68255   0.43838   1.000
    Mc6     Mc   0.53759   0.81736   0.56155   1.000
    Mc7     Mc   0.46216   0.77968   0.43846   1.000
    Mc8     Mc   0.18254   0.22017   0.56159   1.000
    Mc9     Mc   0.22017   0.18254   0.43838   1.000
    Mc10    Mc   0.18253   0.22018   0.93838   1.000
    Mc11    Mc   0.22017   0.18256   0.06161   1.000
    Mc12    Mc   0.31736   0.53760   0.06152   1.000
    Mc13    Mc   0.27967   0.46216   0.93578   1.000
    Mc14    Mc   0.95920   0.77968   0.43846   1.000
    Mc15    Mc   0.03758   0.81736   0.56157   1.000
    Mc16    Mc   0.72018   0.18255   0.43821   1.000
    Mc17    Mc   0.68255   0.22017   0.56159   1.000
    Mc18    Mc   0.72018   0.18255   0.06160   1.000
    Mc19    Mc   0.68255   0.22017   0.93837   1.000
    Mc20    Mc   0.22017   0.68255   0.43838   1.000
    Mc21    Mc   0.18254   0.72018   0.56159   1.000
    Mc22    Mc   0.77968   0.95920   0.56152   1.000
    Mc23    Mc   0.81736   0.03759   0.43841   1.000
    Mc24    Mc   0.77968   0.46216   0.93845   1.000
    Mc25    Mc   0.81737   0.53760   0.06158   1.000
    Mc26    Mc   0.03757   0.31735   0.56154   1.000
    Mc27    Mc   0.95920   0.27967   0.43846   1.000
    Mc28    Mc   0.31736   0.03759   0.06158   1.000
    Mc29    Mc   0.27967   0.95920   0.93845   1.000
    Mc30    Mc   0.81737   0.03760   0.06154   1.000
    Mc31    Mc   0.77968   0.95920   0.93844   1.000
    Mc32    Mc   0.31736   0.03759   0.43841   1.000
    Mc33    Mc   0.27968   0.95920   0.56152   1.000
    Mc34    Mc   0.46216   0.27967   0.43846   1.000
    Mc35    Mc   0.53758   0.31735   0.56157   1.000
    Mc36    Mc   0.22017   0.68256   0.06160   1.000
    Mc37    Mc   0.18254   0.72018   0.93837   1.000
    Mc38    Mc   0.27968   0.46217   0.56152   1.000
    Mc39    Mc   0.31736   0.53760   0.43841   1.000
    Mc40    Mc   0.68255   0.72016   0.93833   1.000
    Mc41    Mc   0.72019   0.68255   0.06159   1.000
