# CIF file generated by openbabel 2.4.90, see http://openbabel.sf.net
data_I
_chemical_name_common ''
_cell_length_a 17.315
_cell_length_b 19.3
_cell_length_c 22.368
_cell_angle_alpha 90
_cell_angle_beta 90.002
_cell_angle_gamma 94.969
_space_group_name_H-M_alt 'P 1'
_space_group_name_Hall 'P 1'
loop_
    _symmetry_equiv_pos_as_xyz
    x,y,z
loop_
    _atom_site_label
    _atom_site_type_symbol
    _atom_site_fract_x
    _atom_site_fract_y
    _atom_site_fract_z
    _atom_site_occupancy
    N0      N    0.93854   0.26804   0.64685   1.000
    N1      N    0.68488   0.29487   0.27067   1.000
    N2      N    0.93852   0.76802   0.85311   1.000
    N3      N    0.56147   0.73193   0.35313   1.000
    N4      N    0.31514   0.20512   0.77065   1.000
    N5      N    0.68486   0.79484   0.22932   1.000
    N6      N    0.56149   0.23195   0.14674   1.000
    N7      N    0.06146   0.73192   0.35313   1.000
    N8      N    0.18488   0.29486   0.27067   1.000
    N9      N    0.43852   0.76802   0.85311   1.000
    N10     N    0.81513   0.70510   0.72930   1.000
    N11     N    0.06148   0.23195   0.14673   1.000
    N12     N    0.81514   0.20512   0.77066   1.000
    N13     N    0.43854   0.26804   0.64685   1.000
    N14     N    0.31513   0.70510   0.72930   1.000
    N15     N    0.18486   0.79484   0.22932   1.000
    Zr16    Zr   0.75000   0.49998   0.99999   1.000
    O17     O    0.74902   0.44199   0.08986   1.000
    O18     O    0.82612   0.58117   0.96916   1.000
    O19     O    0.70812   0.60313   0.07242   1.000
    O20     O    0.67388   0.41880   0.03079   1.000
    O21     O    0.75099   0.55797   0.91011   1.000
    O22     O    0.79189   0.39683   0.92755   1.000
    O23     O    0.62129   0.42224   0.86635   1.000
    O24     O    0.87871   0.57773   0.13363   1.000
    Zr25    Zr   0.25000   0.49998   0.99999   1.000
    O26     O    0.32612   0.58116   0.96916   1.000
    O27     O    0.24902   0.44199   0.08987   1.000
    O28     O    0.29189   0.39683   0.92755   1.000
    O29     O    0.12129   0.42224   0.86635   1.000
    O30     O    0.25099   0.55797   0.91011   1.000
    O31     O    0.17388   0.41880   0.03079   1.000
    O32     O    0.20812   0.60313   0.07242   1.000
    O33     O    0.37872   0.57773   0.13363   1.000
    Zr34    Zr   0.75000   0.99998   0.49999   1.000
    O35     O    0.70813   0.10314   0.42756   1.000
    O36     O    0.87872   0.07774   0.36632   1.000
    O37     O    0.82613   0.08117   0.53081   1.000
    O38     O    0.74901   0.94199   0.41010   1.000
    O39     O    0.62128   0.92223   0.63362   1.000
    O40     O    0.67388   0.91879   0.46916   1.000
    O41     O    0.75099   0.05798   0.58986   1.000
    O42     O    0.79188   0.89682   0.57242   1.000
    Zr43    Zr   0.25000   0.99998   0.49999   1.000
    O44     O    0.37872   0.07774   0.36632   1.000
    O45     O    0.20813   0.10314   0.42756   1.000
    O46     O    0.12128   0.92223   0.63363   1.000
    O47     O    0.29188   0.89682   0.57242   1.000
    O48     O    0.32613   0.08117   0.53082   1.000
    O49     O    0.24901   0.94198   0.41012   1.000
    O50     O    0.17387   0.91879   0.46917   1.000
    O51     O    0.25099   0.05798   0.58986   1.000
loop_
    _geom_bond_atom_site_label_1
    _geom_bond_atom_site_label_2
    _geom_bond_distance
    _geom_bond_site_symmetry_2
    _ccdc_geom_bond_type
    Zr16   O17       2.30029  1_556   S
    N1     O17       5.01063      .   S
    Zr16   O18       2.07601      .   S
    N2     O18       4.72389      .   S
    Zr16   O19       2.71374  1_556   S
    N5     O19       5.14067      .   S
    Zr16   O20       2.07580  1_556   S
    N6     O20       4.72271      .   S
    Zr16   O21       2.30022      .   S
    N10    O21       5.01074      .   S
    Zr16   O22       2.71372      .   S
    N12    O22       5.14066      .   S
    Zr16   O23       3.94641      .   S
    N13    O23       6.42980      .   S
    Zr16   O24       3.94642  1_556   S
    N7     O24       6.42990  1_455   S
    Zr25   O26       2.07602      .   S
    N9     O26       4.72393      .   S
    Zr25   O27       2.30026  1_556   S
    N8     O27       5.01061      .   S
    Zr25   O28       2.71381      .   S
    N4     O28       5.14089      .   S
    Zr25   O29       3.94645      .   S
    N0     O29       6.42983  1_655   S
    Zr25   O30       2.30028      .   S
    N14    O30       5.01081      .   S
    Zr25   O31       2.07577  1_556   S
    N11    O31       4.72263      .   S
    Zr25   O32       2.71364  1_556   S
    N15    O32       5.14065      .   S
    Zr25   O33       3.94647  1_556   S
    N3     O33       6.42981      .   S
    Zr34   O35       2.71372  1_565   S
    N1     O35       5.14069      .   S
    Zr34   O36       3.94713  1_565   S
    N11    O36       6.43169  1_455   S
    Zr34   O37       2.07616  1_565   S
    N0     O37       4.72398      .   S
    Zr34   O38       2.30040      .   S
    N5     O38       5.01045      .   S
    Zr34   O39       3.94666      .   S
    N9     O39       6.43004      .   S
    Zr34   O40       2.07611      .   S
    N3     O40       4.72391      .   S
    Zr34   O41       2.30031  1_565   S
    N12    O41       5.01067      .   S
    Zr34   O42       2.71379      .   S
    N10    O42       5.14064      .   S
    Zr43   O44       3.94714  1_565   S
    N6     O44       6.43166      .   S
    Zr43   O45       2.71372  1_565   S
    N8     O45       5.14069      .   S
    Zr43   O46       3.94663      .   S
    N2     O46       6.43000  1_655   S
    Zr43   O47       2.71376      .   S
    N14    O47       5.14058      .   S
    Zr43   O48       2.07614  1_565   S
    N13    O48       4.72397      .   S
    Zr43   O49       2.30021      .   S
    N15    O49       5.01069      .   S
    Zr43   O50       2.07614      .   S
    N7     O50       4.72396      .   S
    Zr43   O51       2.30020  1_565   S
    N4     O51       5.01042      .   S
