# CIF file generated by openbabel 2.4.90, see http://openbabel.sf.net
data_I
_chemical_name_common ''
_cell_length_a 15.405
_cell_length_b 21.449
_cell_length_c 21.44
_cell_angle_alpha 119.836
_cell_angle_beta 90.02
_cell_angle_gamma 89.974
_space_group_name_H-M_alt 'P 1'
_space_group_name_Hall 'P 1'
loop_
    _symmetry_equiv_pos_as_xyz
    x,y,z
loop_
    _atom_site_label
    _atom_site_type_symbol
    _atom_site_fract_x
    _atom_site_fract_y
    _atom_site_fract_z
    _atom_site_occupancy
    N0      N    0.58313   0.66293   0.00001   1.000
    N1      N    0.75014   0.33704   0.33650   1.000
    N2      N    0.25010   0.33703   0.33653   1.000
    N3      N    0.08316   0.33734   0.00008   1.000
    N4      N    0.58308   0.33729   0.00004   1.000
    N5      N    0.41651   0.00003   0.66294   1.000
    N6      N    0.08293   0.66296   0.00013   1.000
    N7      N    0.91648   0.99997   0.66285   1.000
    N8      N    0.24955   0.66353   0.66350   1.000
    N9      N    0.74960   0.66354   0.66350   1.000
    N10     N    0.41649   0.00036   0.33740   1.000
    N11     N    0.91668   0.00022   0.33737   1.000
    Zr12    Zr   0.08378   0.30138   0.60141   1.000
    O13     O    0.13006   0.40433   0.62148   1.000
    O14     O    0.17865   0.21884   0.52702   1.000
    O15     O    0.98858   0.30929   0.52686   1.000
    O16     O    0.03697   0.21808   0.62122   1.000
    Zr17    Zr   0.41541   0.60156   0.30140   1.000
    O18     O    0.51090   0.52716   0.30927   1.000
    O19     O    0.32077   0.52706   0.21871   1.000
    O20     O    0.46243   0.62138   0.21814   1.000
    O21     O    0.36887   0.62166   0.40430   1.000
    Zr22    Zr   0.74900   0.69935   0.30078   1.000
    O23     O    0.84425   0.69134   0.21835   1.000
    O24     O    0.65421   0.78187   0.30879   1.000
    O25     O    0.79587   0.78241   0.40368   1.000
    O26     O    0.70264   0.59645   0.21767   1.000
    Zr27    Zr   0.25070   0.69943   0.30082   1.000
    O28     O    0.20383   0.59654   0.21770   1.000
    O29     O    0.29699   0.78249   0.40376   1.000
    O30     O    0.15541   0.78188   0.30884   1.000
    O31     O    0.34549   0.69147   0.21836   1.000
    Zr32    Zr   0.58392   0.30134   0.60136   1.000
    O33     O    0.63016   0.40430   0.62145   1.000
    O34     O    0.48865   0.30926   0.52684   1.000
    O35     O    0.53706   0.21807   0.62121   1.000
    O36     O    0.67879   0.21877   0.52696   1.000
    Zr37    Zr   0.24857   0.30113   0.69950   1.000
    O38     O    0.15393   0.21854   0.69148   1.000
    O39     O    0.20208   0.40395   0.78243   1.000
    O40     O    0.29562   0.21801   0.59662   1.000
    O41     O    0.34390   0.30918   0.78201   1.000
    Zr42    Zr   0.74860   0.30108   0.69947   1.000
    O43     O    0.65397   0.21852   0.69149   1.000
    O44     O    0.84395   0.30916   0.78200   1.000
    O45     O    0.79570   0.21794   0.59659   1.000
    O46     O    0.70216   0.40391   0.78237   1.000
    Zr47    Zr   0.08443   0.69888   0.39870   1.000
    O48     O    0.17906   0.78148   0.47321   1.000
    O49     O    0.98895   0.69092   0.47320   1.000
    O50     O    0.13092   0.59605   0.37850   1.000
    O51     O    0.03744   0.78212   0.37888   1.000
    Zr52    Zr   0.58427   0.69893   0.39878   1.000
    O53     O    0.63084   0.59610   0.37859   1.000
    O54     O    0.53726   0.78219   0.37895   1.000
    O55     O    0.67893   0.78151   0.47324   1.000
    O56     O    0.48881   0.69097   0.47325   1.000
    Zr57    Zr   0.91516   0.39848   0.69856   1.000
    O58     O    0.86885   0.37854   0.59568   1.000
    O59     O    0.96228   0.37863   0.78176   1.000
    O60     O    0.01038   0.47318   0.69078   1.000
    O61     O    0.82051   0.47296   0.78132   1.000
    Zr62    Zr   0.41512   0.39853   0.69861   1.000
    O63     O    0.32043   0.47300   0.78140   1.000
    O64     O    0.36882   0.37857   0.59572   1.000
    O65     O    0.51038   0.47321   0.69081   1.000
    O66     O    0.46223   0.37865   0.78179   1.000
    Zr67    Zr   0.91529   0.60168   0.30152   1.000
    O68     O    0.96229   0.62150   0.21829   1.000
    O69     O    0.01077   0.52722   0.30936   1.000
    O70     O    0.86881   0.62176   0.40438   1.000
    O71     O    0.82064   0.52715   0.21876   1.000
loop_
    _geom_bond_atom_site_label_1
    _geom_bond_atom_site_label_2
    _geom_bond_distance
    _geom_bond_site_symmetry_2
    _ccdc_geom_bond_type
    Zr12   O13       2.15058      .   S
    N8     O13       5.48941      .   S
    Zr12   O14       2.23686      .   S
    N10    O14       5.74024      .   S
    Zr12   O15       2.23653  1_455   S
    N1     O15       5.73654      .   S
    Zr12   O16       2.15630      .   S
    N7     O16       5.50365  1_665   S
    Zr17   O18       2.23709      .   S
    N1     O18       5.73651      .   S
    Zr17   O19       2.23695      .   S
    N3     O19       5.74017      .   S
    Zr17   O20       2.15587      .   S
    N0     O20       5.50269      .   S
    Zr17   O21       2.14972      .   S
    N8     O21       5.48703      .   S
    Zr22   O23       2.23742      .   S
    N6     O23       5.74056  1_455   S
    Zr22   O24       2.23382      .   S
    N10    O24       5.73362  1_545   S
    Zr22   O25       2.15677      .   S
    N7     O25       5.50489      .   S
    Zr22   O26       2.15487      .   S
    N4     O26       5.50083      .   S
    Zr27   O28       2.15755      .   S
    N3     O28       5.50690      .   S
    Zr27   O29       2.15425      .   S
    N5     O29       5.49923  1_545   S
    Zr27   O30       2.23761      .   S
    N11    O30       5.74169  1_645   S
    Zr27   O31       2.23331      .   S
    N0     O31       5.73168      .   S
    Zr32   O33       2.15066      .   S
    N9     O33       5.48963      .   S
    Zr32   O34       2.23683      .   S
    N2     O34       5.73712      .   S
    Zr32   O35       2.15641      .   S
    N5     O35       5.50391      .   S
    Zr32   O36       2.23723      .   S
    N11    O36       5.74129      .   S
    Zr37   O38       2.23441      .   S
    N7     O38       5.73448  1_665   S
    Zr37   O39       2.15303      .   S
    N6     O39       5.49664  1_554   S
    Zr37   O40       2.15783      .   S
    N10    O40       5.50737      .   S
    Zr37   O41       2.23845      .   S
    N4     O41       5.74247  1_554   S
    Zr42   O43       2.23416      .   S
    N5     O43       5.73392      .   S
    Zr42   O44       2.23870      .   S
    N3     O44       5.74324  1_454   S
    Zr42   O45       2.15822      .   S
    N11    O45       5.50851      .   S
    Zr42   O46       2.15270      .   S
    N0     O46       5.49570  1_554   S
    Zr47   O48       2.23623      .   S
    N5     O48       5.73870  1_545   S
    Zr47   O49       2.23981  1_455   S
    N9     O49       5.74316      .   S
    Zr47   O50       2.14780      .   S
    N2     O50       5.48308      .   S
    Zr47   O51       2.15532      .   S
    N11    O51       5.50195  1_645   S
    Zr52   O53       2.14830      .   S
    N1     O53       5.48372      .   S
    Zr52   O54       2.15614      .   S
    N10    O54       5.50364  1_545   S
    Zr52   O55       2.23592      .   S
    N7     O55       5.73806      .   S
    Zr52   O56       2.23918      .   S
    N8     O56       5.74200      .   S
    Zr57   O58       2.14892      .   S
    N1     O58       5.48507      .   S
    Zr57   O59       2.15523      .   S
    N3     O59       5.50265  1_454   S
    Zr57   O60       2.23939  1_655   S
    N8     O60       5.74266      .   S
    Zr57   O61       2.23730      .   S
    N0     O61       5.74000  1_554   S
    Zr62   O63       2.23794      .   S
    N6     O63       5.74156  1_554   S
    Zr62   O64       2.14897      .   S
    N2     O64       5.48510      .   S
    Zr62   O65       2.23957      .   S
    N9     O65       5.74310      .   S
    Zr62   O66       2.15502      .   S
    N4     O66       5.50202  1_554   S
    Zr67   O68       2.15524      .   S
    N6     O68       5.50165  1_455   S
    Zr67   O69       2.23767  1_655   S
    N2     O69       5.73780      .   S
    Zr67   O70       2.14887      .   S
    N9     O70       5.48542      .   S
    Zr67   O71       2.23782      .   S
    N4     O71       5.74173      .   S
