# CIF file generated by openbabel 2.4.90, see http://openbabel.sf.net
data_I
_chemical_name_common ''
_cell_length_a 14.648
_cell_length_b 15.577
_cell_length_c 17.021
_cell_angle_alpha 89.998
_cell_angle_beta 89.997
_cell_angle_gamma 116.496
_space_group_name_H-M_alt 'P 1'
_space_group_name_Hall 'P 1'
loop_
    _symmetry_equiv_pos_as_xyz
    x,y,z
loop_
    _atom_site_label
    _atom_site_type_symbol
    _atom_site_fract_x
    _atom_site_fract_y
    _atom_site_fract_z
    _atom_site_occupancy
    N0      N    0.03904   0.27490   0.72453   1.000
    N1      N    0.00467   0.24670   0.02638   1.000
    N2      N    0.53616   0.74515   0.77808   1.000
    N3      N    0.49526   0.25330   0.52637   1.000
    N4      N    0.50469   0.74668   0.47362   1.000
    N5      N    0.96072   0.72508   0.27545   1.000
    N6      N    0.46090   0.22509   0.22451   1.000
    N7      N    0.99528   0.75328   0.97326   1.000
    N8      N    0.60181   0.37810   0.70000   1.000
    Zr9     Zr   0.98786   0.24475   0.39695   1.000
    O10     O    0.82100   0.05437   0.43859   1.000
    O11     O    0.99296   0.41697   0.33590   1.000
    O12     O    0.82010   0.24811   0.43356   1.000
    O13     O    0.80095   0.22335   0.33757   1.000
    O14     O    0.96539   0.05969   0.34008   1.000
    O15     O    0.16795   0.43787   0.43642   1.000
    O16     O    0.15998   0.24619   0.43246   1.000
    O17     O    0.15832   0.25431   0.33479   1.000
    Zr18    Zr   0.01100   0.75523   0.60303   1.000
    O19     O    0.03396   0.94029   0.65991   1.000
    O20     O    0.19773   0.76919   0.66306   1.000
    O21     O    0.17930   0.75187   0.56643   1.000
    O22     O    0.17840   0.94561   0.56140   1.000
    O23     O    0.83145   0.56211   0.56357   1.000
    O24     O    0.00640   0.58301   0.66408   1.000
    O25     O    0.83943   0.75379   0.56753   1.000
    O26     O    0.84036   0.73824   0.66585   1.000
    Zr27    Zr   0.48897   0.74473   0.10302   1.000
    O28     O    0.32157   0.55436   0.06140   1.000
    O29     O    0.66850   0.93787   0.06357   1.000
    O30     O    0.30147   0.72334   0.16239   1.000
    O31     O    0.32067   0.74810   0.06632   1.000
    O32     O    0.49357   0.91697   0.16405   1.000
    O33     O    0.46600   0.55968   0.15988   1.000
    O34     O    0.65884   0.75429   0.16518   1.000
    O35     O    0.66054   0.74617   0.06742   1.000
    Zr36    Zr   0.50563   0.22534   0.91775   1.000
    O37     O    0.50299   0.06062   0.84698   1.000
    O38     O    0.67571   0.43067   0.94889   1.000
    O39     O    0.49057   0.37538   0.86407   1.000
    O40     O    0.33674   0.23885   0.94286   1.000
    O41     O    0.33839   0.23073   0.84520   1.000
    O42     O    0.32877   0.04716   0.94672   1.000
    O43     O    0.67660   0.23693   0.94397   1.000
    O44     O    0.69576   0.26169   0.84799   1.000
loop_
    _geom_bond_atom_site_label_1
    _geom_bond_atom_site_label_2
    _geom_bond_distance
    _geom_bond_site_symmetry_2
    _ccdc_geom_bond_type
    Zr9    O10       2.96692      .   S
    N4     O10       4.99797  1_565   S
    Zr9    O11       2.84660      .   S
    N5     O11       5.13204      .   S
    Zr9    O12       2.55820      .   S
    N3     O12       5.04829      .   S
    Zr9    O13       2.79545      .   S
    N6     O13       5.35127      .   S
    Zr9    O14       2.91701      .   S
    N5     O14       5.29757  1_565   S
    Zr9    O15       3.06256  1_655   S
    N4     O15       5.16724      .   S
    Zr9    O16       2.58297  1_655   S
    N3     O16       5.11888      .   S
    Zr9    O17       2.65411  1_655   S
    N6     O17       5.01733      .   S
    Zr18   O19       2.91461      .   S
    N0     O19       5.29501  1_545   S
    Zr18   O20       2.83592      .   S
    N2     O20       5.49589      .   S
    Zr18   O21       2.56594      .   S
    N4     O21       5.05585      .   S
    Zr18   O22       2.96994      .   S
    N3     O22       5.00197  1_545   S
    Zr18   O23       3.05918  1_455   S
    N3     O23       5.16293      .   S
    Zr18   O24       2.84949      .   S
    N0     O24       5.13507      .   S
    Zr18   O25       2.57520  1_455   S
    N4     O25       5.11130      .   S
    Zr18   O26       2.62111  1_455   S
    N2     O26       4.89320      .   S
    Zr27   O28       2.96994      .   S
    N1     O28       5.00210      .   S
    Zr27   O29       3.05904      .   S
    N1     O29       5.16278  1_445   S
    Zr27   O30       2.80337      .   S
    N5     O30       5.36067  1_655   S
    Zr27   O31       2.56636      .   S
    N7     O31       5.05748  1_656   S
    Zr27   O32       2.84976      .   S
    N6     O32       5.13552  1_545   S
    Zr27   O33       2.91428      .   S
    N6     O33       5.29453      .   S
    Zr27   O34       2.64614      .   S
    N5     O34       5.00804      .   S
    Zr27   O35       2.57539      .   S
    N7     O35       5.11252  1_556   S
    Zr36   O37       2.81915      .   S
    N2     O37       5.28118  1_565   S
    Zr36   O38       3.09958      .   S
    N7     O38       5.13313      .   S
    Zr36   O39       2.60867      .   S
    N2     O39       5.68615      .   S
    Zr36   O40       2.60995      .   S
    N1     O40       5.12105  1_554   S
    Zr36   O41       2.77792      .   S
    N0     O41       5.15869      .   S
    Zr36   O42       2.87089      .   S
    N7     O42       5.00700  1_665   S
    Zr36   O43       2.46996      .   S
    N1     O43       4.94285  1_454   S
    Zr36   O44       2.84243      .   S
    N0     O44       5.36827  1_455   S
