# CIF file generated by openbabel 2.4.90, see http://openbabel.sf.net
data_I
_chemical_name_common ''
_cell_length_a 12.396
_cell_length_b 20.153
_cell_length_c 20.225
_cell_angle_alpha 102.717
_cell_angle_beta 94.698
_cell_angle_gamma 94.474
_space_group_name_H-M_alt 'P 1'
_space_group_name_Hall 'P 1'
loop_
    _symmetry_equiv_pos_as_xyz
    x,y,z
loop_
    _atom_site_label
    _atom_site_type_symbol
    _atom_site_fract_x
    _atom_site_fract_y
    _atom_site_fract_z
    _atom_site_occupancy
    Zr0     Zr   0.80551   0.60889   0.11389   1.000
    Zr1     Zr   0.61626   0.66407   0.15020   1.000
    Zr2     Zr   0.91674   0.20002   0.92677   1.000
    Zr3     Zr   0.00878   0.34957   0.08580   1.000
    Zr4     Zr   0.30555   0.11405   0.60870   1.000
    Zr5     Zr   0.11612   0.15052   0.66300   1.000
    Zr6     Zr   0.41679   0.92793   0.19818   1.000
    Zr7     Zr   0.50880   0.08533   0.34984   1.000
    O8      O    0.71089   0.63648   0.13205   1.000
    O9      O    0.21083   0.13228   0.63585   1.000
    N10     N    0.04294   0.52415   0.06521   1.000
    O11     O    0.95934   0.55435   0.08283   1.000
    O12     O    0.03076   0.46243   0.07265   1.000
    N13     N    0.37633   0.74741   0.19594   1.000
    O14     O    0.46108   0.71796   0.17936   1.000
    O15     O    0.39130   0.81132   0.19700   1.000
    N16     N    0.30974   0.99572   0.89911   1.000
    O17     O    0.31111   0.04040   0.77165   1.000
    O18     O    0.22653   0.05857   0.79761   1.000
    O19     O    0.34145   0.97008   0.03141   1.000
    N20     N    0.14803   0.27220   0.37289   1.000
    O21     O    0.21542   0.20944   0.47602   1.000
    O22     O    0.12717   0.22445   0.49876   1.000
    O23     O    0.08295   0.30750   0.25230   1.000
    N24     N    0.46079   0.39295   0.87551   1.000
    O25     O    0.40013   0.27443   0.76108   1.000
    O26     O    0.31370   0.29248   0.78472   1.000
    O27     O    0.52225   0.51028   0.99124   1.000
    O28     O    0.60785   0.48409   0.97514   1.000
    N29     N    0.96328   0.99456   0.28306   1.000
    O30     O    0.76037   0.02237   0.30822   1.000
    O31     O    0.72993   0.96541   0.24402   1.000
    O32     O    0.19593   0.03483   0.31241   1.000
    O33     O    0.16688   0.96781   0.26000   1.000
    N34     N    0.96101   0.87576   0.39240   1.000
    O35     O    0.90026   0.76121   0.27408   1.000
    O36     O    0.81390   0.78515   0.29205   1.000
    O37     O    0.02230   0.99150   0.50957   1.000
    O38     O    0.10797   0.97536   0.48370   1.000
    N39     N    0.46342   0.28324   0.99392   1.000
    O40     O    0.26056   0.30809   0.02251   1.000
    O41     O    0.22996   0.24485   0.96428   1.000
    O42     O    0.69603   0.31231   0.03447   1.000
    O43     O    0.66696   0.26111   0.96689   1.000
    N44     N    0.80964   0.90013   0.99530   1.000
    O45     O    0.81103   0.77237   0.04021   1.000
    O46     O    0.72656   0.79868   0.05833   1.000
    O47     O    0.84132   0.03270   0.96899   1.000
    N48     N    0.64824   0.37241   0.27171   1.000
    O49     O    0.71542   0.47566   0.20888   1.000
    O50     O    0.62736   0.49883   0.22400   1.000
    O51     O    0.58317   0.25187   0.30735   1.000
    N52     N    0.87617   0.19700   0.74632   1.000
    O53     O    0.96093   0.18015   0.71696   1.000
    O54     O    0.89120   0.19832   0.81019   1.000
    N55     N    0.54283   0.06506   0.52423   1.000
    O56     O    0.45926   0.08281   0.55429   1.000
    O57     O    0.53063   0.07239   0.46260   1.000
loop_
    _geom_bond_atom_site_label_1
    _geom_bond_atom_site_label_2
    _geom_bond_distance
    _geom_bond_site_symmetry_2
    _ccdc_geom_bond_type
    Zr0    O8        1.37924      .   S
    Zr1    O8        1.37924      .   S
    Zr4    O9        1.37811      .   S
    Zr5    O9        1.37811      .   S
    N10    O11       1.27872  1_455   S
    Zr0    O11       2.33615      .   S
    N10    O12       1.28426      .   S
    Zr3    O12       2.34527      .   S
    N13    O14       1.27901      .   S
    Zr1    O14       2.33605      .   S
    N13    O15       1.28225      .   S
    Zr6    O15       2.34116      .   S
    N16    O17       2.91259  1_565   S
    Zr4    O17       3.89892      .   S
    N16    O18       2.80780  1_565   S
    Zr5    O18       3.83745      .   S
    N16    O19       2.83718  1_556   S
    Zr6    O19       3.72012      .   S
    N20    O21       2.77284      .   S
    Zr4    O21       3.77630      .   S
    N20    O22       2.93607      .   S
    Zr5    O22       3.93635      .   S
    N20    O23       2.76350      .   S
    Zr3    O23       3.71143      .   S
    N24    O25       2.93735      .   S
    Zr4    O25       3.96875      .   S
    N24    O26       2.83457      .   S
    Zr5    O26       3.88105      .   S
    N24    O27       2.93943      .   S
    Zr1    O27       3.96680  1_554   S
    N24    O28       2.82899      .   S
    Zr0    O28       3.87416  1_554   S
    N29    O30       2.68401  1_565   S
    Zr7    O30       3.55250      .   S
    N29    O31       2.91416      .   S
    Zr6    O31       3.89129      .   S
    N29    O32       2.91039  1_665   S
    Zr7    O32       3.90053      .   S
    N29    O33       2.67804  1_655   S
    Zr6    O33       3.51948      .   S
    N34    O35       2.93678      .   S
    Zr0    O35       3.96669      .   S
    N34    O36       2.83226      .   S
    Zr1    O36       3.87567      .   S
    N34    O37       2.93750  1_655   S
    Zr5    O37       3.96236  1_545   S
    N34    O38       2.82916  1_655   S
    Zr4    O38       3.87405  1_545   S
    N39    O40       2.68623  1_556   S
    Zr3    O40       3.55929      .   S
    N39    O41       2.91470      .   S
    Zr2    O41       3.89044  1_655   S
    N39    O42       2.90978  1_556   S
    Zr3    O42       3.90069  1_455   S
    N39    O43       2.67544      .   S
    Zr2    O43       3.51106      .   S
    N44    O45       2.91370  1_556   S
    Zr0    O45       3.90156      .   S
    N44    O46       2.81076  1_556   S
    Zr1    O46       3.83893      .   S
    N44    O47       2.84096  1_565   S
    Zr2    O47       3.72557      .   S
    N48    O49       2.77578      .   S
    Zr0    O49       3.78178      .   S
    N48    O50       2.93826      .   S
    Zr1    O50       3.94496      .   S
    N48    O51       2.76265      .   S
    Zr7    O51       3.71082      .   S
    N52    O53       1.28099      .   S
    Zr5    O53       2.34187  1_455   S
    N52    O54       1.28398      .   S
    Zr2    O54       2.34550      .   S
    N55    O56       1.27899      .   S
    Zr4    O56       2.33741      .   S
    N55    O57       1.28537      .   S
    Zr7    O57       2.34818      .   S
