# CIF file generated by openbabel 2.4.90, see http://openbabel.sf.net
data_I
_chemical_name_common ''
_cell_length_a 6.82
_cell_length_b 9.31423
_cell_length_c 10.1835
_cell_angle_alpha 67.1928
_cell_angle_beta 81.436
_cell_angle_gamma 73.461
_space_group_name_H-M_alt 'P 1'
_space_group_name_Hall 'P 1'
loop_
    _symmetry_equiv_pos_as_xyz
    x,y,z
loop_
    _atom_site_label
    _atom_site_type_symbol
    _atom_site_fract_x
    _atom_site_fract_y
    _atom_site_fract_z
    _atom_site_occupancy
    C0      C    0.25378   0.58804   0.30729   1.000
    C1      C    0.23037   0.60573   0.80820   1.000
    C2      C    0.25723   0.09554   0.89018   1.000
    C3      C    0.74620   0.41200   0.69270   1.000
    C4      C    0.76962   0.39430   0.19179   1.000
    C5      C    0.74275   0.90450   0.10982   1.000
