# CIF file generated by openbabel 2.4.90, see http://openbabel.sf.net
data_I
_chemical_name_common ''
_cell_length_a 13.423
_cell_length_b 13.464
_cell_length_c 16.481
_cell_angle_alpha 89.995
_cell_angle_beta 90.02
_cell_angle_gamma 89.893
_space_group_name_H-M_alt 'P 1'
_space_group_name_Hall 'P 1'
loop_
    _symmetry_equiv_pos_as_xyz
    x,y,z
loop_
    _atom_site_label
    _atom_site_type_symbol
    _atom_site_fract_x
    _atom_site_fract_y
    _atom_site_fract_z
    _atom_site_occupancy
    H0      H    0.28501   0.30769   0.69053   1.000
    H1      H    0.78513   0.30767   0.69057   1.000
    H2      H    0.28455   0.19230   0.81070   1.000
    H3      H    0.78463   0.19230   0.81075   1.000
    H4      H    0.46556   0.30703   0.68900   1.000
    H5      H    0.96546   0.30701   0.68904   1.000
    H6      H    0.46522   0.19167   0.80921   1.000
    H7      H    0.96517   0.19162   0.80922   1.000
    H8      H    0.46499   0.19226   0.19040   1.000
    H9      H    0.96508   0.19220   0.19046   1.000
    H10     H    0.46533   0.30764   0.31056   1.000
    H11     H    0.96545   0.30754   0.31065   1.000
    H12     H    0.28462   0.19309   0.18910   1.000
    H13     H    0.78456   0.19306   0.18920   1.000
    H14     H    0.28483   0.30844   0.30932   1.000
    H15     H    0.78474   0.30842   0.30938   1.000
    H16     H    0.21491   0.69233   0.30941   1.000
    H17     H    0.71503   0.69231   0.30946   1.000
    H18     H    0.21541   0.80770   0.18923   1.000
    H19     H    0.71549   0.80769   0.18927   1.000
    H20     H    0.03458   0.69299   0.31094   1.000
    H21     H    0.53448   0.69297   0.31090   1.000
    H22     H    0.03487   0.80837   0.19077   1.000
    H23     H    0.53482   0.80833   0.19078   1.000
    H24     H    0.03496   0.80780   0.80952   1.000
    H25     H    0.53505   0.80774   0.80958   1.000
    H26     H    0.03459   0.69245   0.68934   1.000
    H27     H    0.53471   0.69236   0.68943   1.000
    H28     H    0.21548   0.80694   0.81079   1.000
    H29     H    0.71542   0.80690   0.81084   1.000
    H30     H    0.21530   0.69158   0.69060   1.000
    H31     H    0.71521   0.69155   0.69060   1.000
    C32     C    0.12523   0.31340   0.68262   1.000
    C33     C    0.62536   0.31340   0.68262   1.000
    C34     C    0.21550   0.28147   0.71684   1.000
    C35     C    0.71561   0.28147   0.71680   1.000
    C36     C    0.12484   0.18575   0.81674   1.000
    C37     C    0.62491   0.18577   0.81675   1.000
    C38     C    0.21531   0.21801   0.78339   1.000
    C39     C    0.71540   0.21801   0.78342   1.000
    C40     C    0.03478   0.28109   0.71602   1.000
    C41     C    0.53489   0.28110   0.71601   1.000
    C42     C    0.03455   0.21762   0.78257   1.000
    C43     C    0.53464   0.21765   0.78256   1.000
    C44     C    0.12483   0.18659   0.18263   1.000
    C45     C    0.62477   0.18660   0.18263   1.000
    C46     C    0.03455   0.21845   0.21681   1.000
    C47     C    0.53448   0.21850   0.21677   1.000
    C48     C    0.12514   0.31422   0.31676   1.000
    C49     C    0.62504   0.31425   0.31675   1.000
    C50     C    0.03469   0.28190   0.28330   1.000
    C51     C    0.53460   0.28196   0.28332   1.000
    C52     C    0.21526   0.21895   0.21609   1.000
    C53     C    0.71519   0.21894   0.21611   1.000
    C54     C    0.21544   0.28240   0.28263   1.000
    C55     C    0.71535   0.28240   0.28266   1.000
    C56     C    0.37468   0.68660   0.31737   1.000
    C57     C    0.87481   0.68659   0.31730   1.000
    C58     C    0.28443   0.71853   0.28312   1.000
    C59     C    0.78454   0.71852   0.28314   1.000
    C60     C    0.37513   0.81423   0.18323   1.000
    C61     C    0.87520   0.81425   0.18324   1.000
    C62     C    0.28464   0.78199   0.21657   1.000
    C63     C    0.78473   0.78199   0.21659   1.000
    C64     C    0.46515   0.71890   0.28398   1.000
    C65     C    0.96526   0.71891   0.28396   1.000
    C66     C    0.46540   0.78235   0.21742   1.000
    C67     C    0.96549   0.78238   0.21742   1.000
    C68     C    0.37527   0.81340   0.81736   1.000
    C69     C    0.87521   0.81341   0.81736   1.000
    C70     C    0.46556   0.78150   0.78321   1.000
    C71     C    0.96549   0.78155   0.78317   1.000
    C72     C    0.37500   0.68575   0.68320   1.000
    C73     C    0.87490   0.68578   0.68322   1.000
    C74     C    0.46544   0.71803   0.71667   1.000
    C75     C    0.96535   0.71810   0.71662   1.000
    C76     C    0.28485   0.78105   0.78387   1.000
    C77     C    0.78478   0.78104   0.78390   1.000
    C78     C    0.28469   0.71760   0.71733   1.000
    C79     C    0.78460   0.71759   0.71735   1.000
loop_
    _geom_bond_atom_site_label_1
    _geom_bond_atom_site_label_2
    _geom_bond_distance
    _geom_bond_site_symmetry_2
    _ccdc_geom_bond_type
    C45    C53       1.40310      .   S
    C45    C47       1.40309      .   S
    C44    C52       1.40314      .   S
    C44    C46       1.40311      .   S
    C60    C62       1.40285      .   S
    C60    C66       1.40269      .   S
    C61    C63       1.40284      .   S
    C61    C67       1.40272      .   S
    H12    C52       1.08865      .   S
    H13    C53       1.08829      .   S
    H18    C62       1.08857      .   S
    H19    C63       1.08852      .   S
    H8     C47       1.08836      .   S
    H9     C46       1.08809  1_655   S
    H22    C67       1.08825  1_455   S
    H23    C66       1.08849      .   S
    C52    C54       1.39019      .   S
    C53    C55       1.39038      .   S
    C62    C58       1.39027      .   S
    C63    C59       1.39034      .   S
    C47    C51       1.39045      .   S
    C46    C50       1.38955      .   S
    C67    C65       1.39021      .   S
    C66    C64       1.39036      .   S
    C54    H14       1.08853      .   S
    C54    C48       1.40271      .   S
    C55    H15       1.08852      .   S
    C55    C49       1.40272      .   S
    C58    H16       1.08833      .   S
    C58    C56       1.40310      .   S
    C59    H17       1.08842      .   S
    C59    C57       1.40271      .   S
    C50    H11       1.08872  1_455   S
    C50    C48       1.40324      .   S
    C51    H10       1.08852      .   S
    C51    C49       1.40280      .   S
    C65    H20       1.08804  1_655   S
    C65    C57       1.40272      .   S
    C64    H21       1.08774      .   S
    C64    C56       1.40315      .   S
    C33    C41       1.40314      .   S
    C33    C35       1.40264      .   S
    C32    C40       1.40310      .   S
    C32    C34       1.40310      .   S
    C72    C74       1.40305      .   S
    C72    C78       1.40299      .   S
    C73    C75       1.40285      .   S
    C73    C79       1.40271      .   S
    H4     C41       1.08835      .   S
    H5     C40       1.08805  1_655   S
    H26    C75       1.08825  1_455   S
    H27    C74       1.08852      .   S
    H0     C34       1.08836      .   S
    H1     C35       1.08792      .   S
    H31    C79       1.08893      .   S
    H30    C78       1.08859      .   S
    C41    C43       1.39021      .   S
    C40    C42       1.39033      .   S
    C75    C71       1.39032      .   S
    C74    C70       1.39031      .   S
    C35    C39       1.39117      .   S
    C34    C38       1.39034      .   S
    C78    C76       1.39024      .   S
    C79    C77       1.39031      .   S
    C43    H6        1.08857      .   S
    C43    C37       1.40269      .   S
    C42    H7        1.08825  1_455   S
    C42    C36       1.40265      .   S
    C71    H24       1.08809  1_655   S
    C71    C69       1.40317      .   S
    C70    H25       1.08837      .   S
    C70    C68       1.40314      .   S
    C38    H2        1.08845      .   S
    C38    C36       1.40284      .   S
    C39    H3        1.08850      .   S
    C39    C37       1.40279      .   S
    C76    H28       1.08837      .   S
    C76    C68       1.40316      .   S
    C77    H29       1.08832      .   S
    C77    C69       1.40314      .   S
