# CIF file generated by openbabel 2.4.90, see http://openbabel.sf.net
data_I
_chemical_name_common 'ZnH7C12O5'
_cell_length_a 7.639
_cell_length_b 12.824
_cell_length_c 12.929
_cell_angle_alpha 80.642
_cell_angle_beta 85.374
_cell_angle_gamma 85.506
_space_group_name_H-M_alt 'P 1'
_space_group_name_Hall 'P 1'
loop_
    _symmetry_equiv_pos_as_xyz
    x,y,z
loop_
    _atom_site_label
    _atom_site_type_symbol
    _atom_site_fract_x
    _atom_site_fract_y
    _atom_site_fract_z
    _atom_site_occupancy
    Zn0     Zn   0.43027   0.28405   0.22680   1.000
    Zn1     Zn   0.06784   0.77377   0.71581   1.000
    Zn2     Zn   0.56972   0.71593   0.77323   1.000
    Zn3     Zn   0.93216   0.22621   0.28422   1.000
    H4      H    0.69547   0.46413   0.95148   1.000
    H5      H    0.21433   0.44827   0.79623   1.000
    H6      H    0.06635   0.20243   0.05075   1.000
    H7      H    0.49042   0.36947   0.85903   1.000
    H8      H    0.41026   0.30420   0.76186   1.000
    H9      H    0.49695   0.11960   0.99645   1.000
    H10     H    0.80487   0.05068   0.53428   1.000
    H11     H    0.28483   0.20464   0.55082   1.000
    H12     H    0.43670   0.95129   0.79637   1.000
    H13     H    0.00977   0.14065   0.63115   1.000
    H14     H    0.08969   0.23988   0.69437   1.000
    H15     H    0.00603   0.00295   0.87839   1.000
    H16     H    0.30453   0.53584   0.04855   1.000
    H17     H    0.78567   0.55172   0.20380   1.000
    H18     H    0.93365   0.79755   0.94928   1.000
    H19     H    0.50959   0.63051   0.14101   1.000
    H20     H    0.58974   0.69579   0.23817   1.000
    H21     H    0.50306   0.88038   0.00358   1.000
    H22     H    0.19513   0.94930   0.46576   1.000
    H23     H    0.71517   0.79534   0.44921   1.000
    H24     H    0.56329   0.04869   0.20366   1.000
    H25     H    0.99023   0.85934   0.36888   1.000
    H26     H    0.91032   0.76011   0.30566   1.000
    H27     H    0.99397   0.99703   0.12164   1.000
    H28     H    0.75205   0.98652   0.01155   1.000
    H29     H    0.75024   0.28607   0.71514   1.000
    H30     H    0.24795   0.01347   0.98848   1.000
    H31     H    0.24976   0.71391   0.28489   1.000
    C32     C    0.86663   0.32874   0.01084   1.000
    C33     C    0.82388   0.42242   0.94266   1.000
    C34     C    0.94945   0.46401   0.86573   1.000
    C35     C    0.11785   0.41230   0.85507   1.000
    C36     C    0.15683   0.31648   0.92049   1.000
    C37     C    0.03158   0.27550   0.00000   1.000
    C38     C    0.73918   0.28747   0.09830   1.000
    C39     C    0.45268   0.29256   0.84289   1.000
    C40     C    0.60614   0.21077   0.85431   1.000
    C41     C    0.60805   0.12662   0.93820   1.000
    C42     C    0.90277   0.56717   0.79776   1.000
    C43     C    0.63520   0.99127   0.66989   1.000
    C44     C    0.67673   0.05931   0.57619   1.000
    C45     C    0.55017   0.13576   0.53477   1.000
    C46     C    0.38206   0.14618   0.58665   1.000
    C47     C    0.34432   0.08091   0.68238   1.000
    C48     C    0.47056   0.00000   0.72325   1.000
    C49     C    0.76348   0.90410   0.71094   1.000
    C50     C    0.04803   0.15791   0.70690   1.000
    C51     C    0.89543   0.14608   0.78883   1.000
    C52     C    0.89463   0.06133   0.87215   1.000
    C53     C    0.59572   0.20335   0.43163   1.000
    C54     C    0.13337   0.67124   0.98919   1.000
    C55     C    0.17612   0.57756   0.05738   1.000
    C56     C    0.05055   0.53597   0.13430   1.000
    C57     C    0.88215   0.58769   0.14496   1.000
    C58     C    0.84317   0.68350   0.07954   1.000
    C59     C    0.96842   0.72448   0.00110   1.000
    C60     C    0.26081   0.71251   0.90173   1.000
    C61     C    0.54732   0.70743   0.15714   1.000
    C62     C    0.39386   0.78921   0.14572   1.000
    C63     C    0.39195   0.87337   0.06184   1.000
    C64     C    0.09723   0.43281   0.20226   1.000
    C65     C    0.36480   0.00871   0.33014   1.000
    C66     C    0.32327   0.94068   0.42385   1.000
    C67     C    0.44983   0.86422   0.46526   1.000
    C68     C    0.61793   0.85380   0.41338   1.000
    C69     C    0.65567   0.91907   0.31765   1.000
    C70     C    0.52944   0.99706   0.27678   1.000
    C71     C    0.23652   0.09588   0.28910   1.000
    C72     C    0.95197   0.84207   0.29313   1.000
    C73     C    0.10457   0.85391   0.21120   1.000
    C74     C    0.10537   0.93866   0.12788   1.000
    C75     C    0.40428   0.79663   0.56840   1.000
    C76     C    0.75162   0.05230   0.94643   1.000
    C77     C    0.75062   0.22013   0.78041   1.000
    C78     C    0.24838   0.94768   0.05360   1.000
    C79     C    0.24938   0.77986   0.21962   1.000
    O80     O    0.58411   0.33323   0.10188   1.000
    O81     O    0.78533   0.20894   0.16757   1.000
    O82     O    0.74000   0.59071   0.78721   1.000
    O83     O    0.03017   0.62219   0.75556   1.000
    O84     O    0.31126   0.25592   0.91594   1.000
    O85     O    0.91898   0.90142   0.66586   1.000
    O86     O    0.71792   0.83368   0.78865   1.000
    O87     O    0.75828   0.21435   0.40748   1.000
    O88     O    0.46747   0.24456   0.37737   1.000
    O89     O    0.19033   0.08519   0.74303   1.000
    O90     O    0.41589   0.66675   0.89815   1.000
    O91     O    0.21466   0.79104   0.83246   1.000
    O92     O    0.25999   0.40926   0.21281   1.000
    O93     O    0.96983   0.37779   0.24447   1.000
    O94     O    0.68874   0.74407   0.08409   1.000
    O95     O    0.08102   0.09856   0.33417   1.000
    O96     O    0.28208   0.16630   0.21138   1.000
    O97     O    0.24172   0.78563   0.59255   1.000
    O98     O    0.53253   0.75542   0.62266   1.000
    O99     O    0.80966   0.91479   0.25700   1.000
loop_
    _geom_bond_atom_site_label_1
    _geom_bond_atom_site_label_2
    _geom_bond_distance
    _geom_bond_site_symmetry_2
    _ccdc_geom_bond_type
    C37    C32       1.39333  1_455   S
    C37    H6        1.08092      .   S
    C37    C36       1.41165  1_554   S
    C59    C58       1.40325      .   S
    C59    H18       1.08768  1_554   S
    C59    C54       1.39487  1_654   S
    H21    C63       1.08742      .   S
    C32    C38       1.48832      .   S
    C32    C33       1.40277  1_554   S
    H28    C76       1.09065  1_564   S
    H16    C55       1.08668      .   S
    C78    C63       1.39443      .   S
    C78    C74       1.39420      .   S
    C78    H30       1.09066  1_564   S
    C55    C56       1.39552      .   S
    C55    C54       1.40277  1_554   S
    C63    C62       1.40022      .   S
    C58    O94       1.36328      .   S
    C58    C57       1.39968      .   S
    O94    C61       1.43198      .   S
    C38    O80       1.28096      .   S
    C38    O81       1.28153      .   S
    O80    Zn0       1.96625      .   S
    H27    C74       1.08752  1_655   S
    C74    C73       1.40027      .   S
    C56    C57       1.40754  1_455   S
    C56    C64       1.49938      .   S
    H19    C61       1.10480      .   S
    C57    H17       1.08783      .   S
    C62    C61       1.51025      .   S
    C62    C79       1.39959      .   S
    C61    H20       1.10503      .   S
    O81    Zn3       2.00048      .   S
    C64    O92       1.26921      .   S
    C64    O93       1.28041  1_455   S
    H24    C70       1.08751  1_545   S
    C73    C79       1.39951      .   S
    C73    C72       1.51008  1_455   S
    O96    Zn0       2.00085      .   S
    O96    C71       1.28219      .   S
    O92    Zn0       1.97976      .   S
    C79    H31       1.09318      .   S
    Zn0    O88       1.96802      .   S
    O93    Zn3       1.96574      .   S
    O99    C72       1.43205      .   S
    O99    C69       1.36258      .   S
    C70    C69       1.40307      .   S
    C70    C65       1.39438  1_565   S
    Zn3    O95       1.96800  1_655   S
    Zn3    O87       1.98462      .   S
    C71    C65       1.48690      .   S
    C71    O95       1.28075      .   S
    C72    H26       1.10504      .   S
    C72    H25       1.10478      .   S
    C69    C68       1.39967      .   S
    C65    C66       1.40257  1_545   S
    O88    C53       1.28076      .   S
    O87    C53       1.26883      .   S
    C68    H23       1.08788      .   S
    C68    C67       1.40715      .   S
    C66    C67       1.39535      .   S
    C66    H22       1.08670      .   S
    C53    C45       1.49906      .   S
    C67    C75       1.49906      .   S
    H10    C44       1.08670      .   S
    C45    C44       1.39536      .   S
    C45    C46       1.40716      .   S
    H11    C46       1.08789      .   S
    C75    O97       1.26884      .   S
    C75    O98       1.28077      .   S
    C44    C43       1.40257  1_545   S
    C46    C47       1.39966      .   S
    O97    Zn1       1.98462      .   S
    O98    Zn2       1.96800      .   S
    H13    C50       1.10479      .   S
    O85    C49       1.28074      .   S
    O85    Zn1       1.96799  1_655   S
    C43    C49       1.48690      .   S
    C43    C48       1.39050  1_565   S
    C47    C48       1.42578      .   S
    C47    O89       1.36258      .   S
    H14    C50       1.10505      .   S
    C50    O89       1.43206      .   S
    C50    C51       1.51006  1_455   S
    C49    O86       1.28219      .   S
    H29    C77       1.09318      .   S
    Zn1    O83       1.96574      .   S
    Zn1    O91       2.00050      .   S
    C48    H12       1.06981  1_545   S
    O83    C42       1.28040  1_455   S
    H8     C39       1.10503      .   S
    Zn2    O82       1.97976      .   S
    Zn2    O86       2.00087      .   S
    Zn2    O90       1.96623      .   S
    C77    C51       1.39951      .   S
    C77    C40       1.39958      .   S
    O82    C42       1.26921      .   S
    C51    C52       1.40027      .   S
    H5     C35       1.08781      .   S
    C42    C34       1.49937      .   S
    O91    C60       1.28154      .   S
    C39    C40       1.51026      .   S
    C39    H7        1.10479      .   S
    C39    O84       1.43199      .   S
    C40    C41       1.40022      .   S
    C35    C34       1.40753  1_455   S
    C35    C36       1.39969      .   S
    C34    C33       1.39552      .   S
    C52    H15       1.08751  1_655   S
    C52    C76       1.39422      .   S
    O90    C60       1.28098      .   S
    C60    C54       1.48831      .   S
    O84    C36       1.36326      .   S
    C41    C76       1.39443      .   S
    C41    H9        1.08743      .   S
    C33    H4        1.08668      .   S
