# CIF file generated by openbabel 2.4.90, see http://openbabel.sf.net
data_I
_chemical_name_common ''
_cell_length_a 12.416
_cell_length_b 15.662
_cell_length_c 15.483
_cell_angle_alpha 89.974
_cell_angle_beta 89.987
_cell_angle_gamma 90.033
_space_group_name_H-M_alt 'P 1'
_space_group_name_Hall 'P 1'
loop_
    _symmetry_equiv_pos_as_xyz
    x,y,z
loop_
    _atom_site_label
    _atom_site_type_symbol
    _atom_site_fract_x
    _atom_site_fract_y
    _atom_site_fract_z
    _atom_site_occupancy
    Zr0     Zr   0.99998   0.00002   0.00000   1.000
    Zr1     Zr   0.49998   0.49997   0.50000   1.000
    Zr2     Zr   0.15690   0.99997   0.18490   1.000
    Zr3     Zr   0.84311   1.00000   0.81508   1.000
    Zr4     Zr   0.34311   0.50005   0.68492   1.000
    Zr5     Zr   0.65687   0.49993   0.31509   1.000
    Zr6     Zr   0.93340   0.80532   0.17129   1.000
    Zr7     Zr   0.06672   0.80560   0.82900   1.000
    Zr8     Zr   0.56676   0.69442   0.67105   1.000
    Zr9     Zr   0.43321   0.69448   0.32867   1.000
    Zr10    Zr   0.06662   0.19470   0.82871   1.000
    Zr11    Zr   0.93320   0.19440   0.17104   1.000
    Zr12    Zr   0.43329   0.30541   0.32903   1.000
    Zr13    Zr   0.56685   0.30547   0.67133   1.000
    Zr14    Zr   0.98355   0.90814   0.09274   1.000
    Zr15    Zr   0.04018   0.91018   0.16671   1.000
    Zr16    Zr   0.01031   0.84612   0.21756   1.000
    Zr17    Zr   0.91586   0.84281   0.09386   1.000
    Zr18    Zr   0.01666   0.90836   0.90754   1.000
    Zr19    Zr   0.95977   0.91025   0.83368   1.000
    Zr20    Zr   0.98974   0.84635   0.78279   1.000
    Zr21    Zr   0.08442   0.84311   0.90638   1.000
    Zr22    Zr   0.51663   0.59168   0.59249   1.000
    Zr23    Zr   0.45971   0.58972   0.66636   1.000
    Zr24    Zr   0.48968   0.65364   0.71726   1.000
    Zr25    Zr   0.58425   0.65706   0.59357   1.000
    Zr26    Zr   0.48336   0.59172   0.40721   1.000
    Zr27    Zr   0.53999   0.58971   0.33320   1.000
    Zr28    Zr   0.51002   0.65368   0.28232   1.000
    Zr29    Zr   0.41578   0.65706   0.40616   1.000
    Zr30    Zr   0.01651   0.09183   0.90717   1.000
    Zr31    Zr   0.95996   0.08973   0.83315   1.000
    Zr32    Zr   0.98994   0.15377   0.78230   1.000
    Zr33    Zr   0.08401   0.15728   0.90619   1.000
    Zr34    Zr   0.98328   0.09164   0.09250   1.000
    Zr35    Zr   0.04001   0.08962   0.16647   1.000
    Zr36    Zr   0.01003   0.15354   0.21734   1.000
    Zr37    Zr   0.91558   0.15692   0.09360   1.000
    Zr38    Zr   0.48330   0.40825   0.40752   1.000
    Zr39    Zr   0.54020   0.41022   0.33363   1.000
    Zr40    Zr   0.51021   0.34630   0.28270   1.000
    Zr41    Zr   0.41562   0.34290   0.40642   1.000
    Zr42    Zr   0.51667   0.40822   0.59280   1.000
    Zr43    Zr   0.46007   0.41026   0.66682   1.000
    Zr44    Zr   0.49000   0.34626   0.71768   1.000
    Zr45    Zr   0.58423   0.34286   0.59381   1.000
    Zr46    Zr   0.21658   0.00022   0.03689   1.000
    Zr47    Zr   0.78341   0.99986   0.96309   1.000
    Zr48    Zr   0.28346   0.50010   0.53692   1.000
    Zr49    Zr   0.71650   0.49986   0.46309   1.000
    O50     O    0.18674   0.00010   0.11090   1.000
    O51     O    0.94943   0.12428   0.09305   1.000
    O52     O    0.01164   0.09063   0.12949   1.000
    O53     O    0.99163   0.04583   0.04625   1.000
    O54     O    0.94970   0.87547   0.09330   1.000
    O55     O    0.01186   0.90916   0.12973   1.000
    O56     O    0.99176   0.95408   0.04637   1.000
    O57     O    0.92439   0.17566   0.13232   1.000
    O58     O    0.92463   0.82406   0.13258   1.000
    O59     O    0.09846   0.04480   0.17569   1.000
    O60     O    0.02502   0.12158   0.19191   1.000
    O61     O    0.09854   0.95508   0.17580   1.000
    O62     O    0.02524   0.87815   0.19214   1.000
    O63     O    0.97162   0.17397   0.19419   1.000
    O64     O    0.97185   0.82572   0.19443   1.000
    O65     O    0.47162   0.67408   0.30550   1.000
    O66     O    0.52501   0.62169   0.30776   1.000
    O67     O    0.47175   0.32586   0.30586   1.000
    O68     O    0.52521   0.37826   0.30816   1.000
    O69     O    0.59843   0.54482   0.32415   1.000
    O70     O    0.59853   0.45507   0.32436   1.000
    O71     O    0.68668   0.49990   0.38909   1.000
    O72     O    0.42449   0.67577   0.36742   1.000
    O73     O    0.42446   0.32416   0.36773   1.000
    O74     O    0.51167   0.59072   0.37021   1.000
    O75     O    0.51175   0.40924   0.37057   1.000
    O76     O    0.44957   0.62439   0.40669   1.000
    O77     O    0.44946   0.37558   0.40697   1.000
    O78     O    0.49167   0.54584   0.45361   1.000
    O79     O    0.49164   0.45411   0.45376   1.000
    O80     O    0.50831   0.54582   0.54625   1.000
    O81     O    0.50833   0.45409   0.54640   1.000
    O82     O    0.31328   0.50007   0.61092   1.000
    O83     O    0.55044   0.62437   0.59303   1.000
    O84     O    0.48817   0.59070   0.62943   1.000
    O85     O    0.55045   0.37554   0.59330   1.000
    O86     O    0.48837   0.40924   0.62981   1.000
    O87     O    0.57550   0.67574   0.63231   1.000
    O88     O    0.57554   0.32416   0.63257   1.000
    O89     O    0.40141   0.54489   0.67564   1.000
    O90     O    0.47470   0.62168   0.69181   1.000
    O91     O    0.40159   0.45515   0.67587   1.000
    O92     O    0.47504   0.37826   0.69225   1.000
    O93     O    0.52822   0.67403   0.69415   1.000
    O94     O    0.52843   0.32587   0.69451   1.000
    O95     O    0.02828   0.17423   0.80551   1.000
    O96     O    0.97495   0.12175   0.80773   1.000
    O97     O    0.02823   0.82598   0.80589   1.000
    O98     O    0.97475   0.87830   0.80823   1.000
    O99     O    0.90154   0.04486   0.82412   1.000
    O100    O    0.90144   0.95512   0.82438   1.000
    O101    O    0.81326   0.99993   0.88909   1.000
    O102    O    0.07531   0.17599   0.86745   1.000
    O103    O    0.07557   0.82436   0.86769   1.000
    O104    O    0.98823   0.09078   0.87016   1.000
    O105    O    0.98822   0.90930   0.87061   1.000
    O106    O    0.05026   0.12456   0.90668   1.000
    O107    O    0.05054   0.87573   0.90696   1.000
    O108    O    0.00824   0.04592   0.95359   1.000
    O109    O    0.00832   0.95419   0.95377   1.000
    N110    N    0.31184   0.16090   0.26672   1.000
    O111    O    0.35762   0.21467   0.29013   1.000
    O112    O    0.25838   0.10375   0.23874   1.000
    N113    N    0.68808   0.16089   0.73342   1.000
    O114    O    0.64236   0.21467   0.71007   1.000
    O115    O    0.74156   0.10374   0.76135   1.000
    N116    N    0.31188   0.83904   0.26664   1.000
    O117    O    0.35763   0.78526   0.28996   1.000
    O118    O    0.25842   0.89620   0.23871   1.000
    N119    N    0.81188   0.33895   0.23323   1.000
    O120    O    0.75841   0.39612   0.26120   1.000
    O121    O    0.85760   0.28515   0.20986   1.000
    N122    N    0.81189   0.66080   0.23345   1.000
    O123    O    0.75839   0.60367   0.26138   1.000
    O124    O    0.85771   0.71456   0.21008   1.000
    N125    N    0.68816   0.83900   0.73322   1.000
    O126    O    0.64237   0.78522   0.70985   1.000
    O127    O    0.74163   0.89617   0.76120   1.000
    N128    N    0.18806   0.66108   0.76679   1.000
    O129    O    0.14233   0.71486   0.79016   1.000
    O130    O    0.24154   0.60389   0.73882   1.000
    N131    N    0.18812   0.33924   0.76657   1.000
    O132    O    0.24161   0.39636   0.73863   1.000
    O133    O    0.14230   0.28548   0.78994   1.000
loop_
    _geom_bond_atom_site_label_1
    _geom_bond_atom_site_label_2
    _geom_bond_distance
    _geom_bond_site_symmetry_2
    _ccdc_geom_bond_type
    Zr46   O50       1.20415      .   S
    Zr2    O50       1.20415  1_565   S
    Zr34   O51       0.66200      .   S
    Zr37   O51       0.66200      .   S
    Zr34   O52       0.67253  1_655   S
    Zr35   O52       0.67253      .   S
    Zr34   O53       1.01926      .   S
    Zr0    O53       1.01926      .   S
    Zr14   O54       0.66193      .   S
    Zr17   O54       0.66193      .   S
    Zr14   O55       0.67221  1_655   S
    Zr15   O55       0.67221      .   S
    Zr14   O56       1.02126      .   S
    Zr0    O56       1.02126  1_545   S
    Zr37   O57       0.67649      .   S
    Zr11   O57       0.67649      .   S
    Zr17   O58       0.67622      .   S
    Zr6    O58       0.67622      .   S
    Zr35   O59       1.01998      .   S
    Zr2    O59       1.01998  1_565   S
    Zr35   O60       0.66372      .   S
    Zr36   O60       0.66372      .   S
    Zr15   O61       1.01924      .   S
    Zr2    O61       1.01924      .   S
    Zr15   O62       0.66387      .   S
    Zr16   O62       0.66387      .   S
    Zr11   O63       0.67712      .   S
    Zr36   O63       0.67712  1_455   S
    Zr6    O64       0.67703      .   S
    Zr16   O64       0.67703  1_455   S
    Zr28   O65       0.67709      .   S
    Zr9    O65       0.67709      .   S
    Zr28   O66       0.66381      .   S
    Zr27   O66       0.66381      .   S
    Zr40   O67       0.67737      .   S
    Zr12   O67       0.67737      .   S
    Zr40   O68       0.66391      .   S
    Zr39   O68       0.66391      .   S
    Zr5    O69       1.02032      .   S
    Zr27   O69       1.02032      .   S
    Zr5    O70       1.01880      .   S
    Zr39   O70       1.01880      .   S
    Zr5    O71       1.20415      .   S
    Zr49   O71       1.20415      .   S
    Zr9    O72       0.67619      .   S
    Zr29   O72       0.67619      .   S
    Zr12   O73       0.67625      .   S
    Zr41   O73       0.67625      .   S
    Zr27   O74       0.67235      .   S
    Zr26   O74       0.67235      .   S
    Zr39   O75       0.67240      .   S
    Zr38   O75       0.67240      .   S
    Zr29   O76       0.66192      .   S
    Zr26   O76       0.66192      .   S
    Zr41   O77       0.66198      .   S
    Zr38   O77       0.66198      .   S
    Zr26   O78       1.02107      .   S
    Zr1    O78       1.02107      .   S
    Zr38   O79       1.01958      .   S
    Zr1    O79       1.01958      .   S
    Zr1    O80       1.01959      .   S
    Zr22   O80       1.01959      .   S
    Zr1    O81       1.02113      .   S
    Zr42   O81       1.02113      .   S
    Zr48   O82       1.20416      .   S
    Zr4    O82       1.20416      .   S
    Zr22   O83       0.66196      .   S
    Zr25   O83       0.66196      .   S
    Zr22   O84       0.67233      .   S
    Zr23   O84       0.67233      .   S
    Zr42   O85       0.66197      .   S
    Zr45   O85       0.66197      .   S
    Zr42   O86       0.67232      .   S
    Zr43   O86       0.67232      .   S
    Zr25   O87       0.67626      .   S
    Zr8    O87       0.67626      .   S
    Zr45   O88       0.67621      .   S
    Zr13   O88       0.67621      .   S
    Zr23   O89       1.01834      .   S
    Zr4    O89       1.01834      .   S
    Zr23   O90       0.66374      .   S
    Zr24   O90       0.66374      .   S
    Zr43   O91       1.02077      .   S
    Zr4    O91       1.02077      .   S
    Zr43   O92       0.66385      .   S
    Zr44   O92       0.66385      .   S
    Zr8    O93       0.67718      .   S
    Zr24   O93       0.67718      .   S
    Zr13   O94       0.67714      .   S
    Zr44   O94       0.67714      .   S
    Zr32   O95       0.67707  1_655   S
    Zr10   O95       0.67707      .   S
    Zr32   O96       0.66387      .   S
    Zr31   O96       0.66387      .   S
    Zr20   O97       0.67704  1_655   S
    Zr7    O97       0.67704      .   S
    Zr20   O98       0.66368      .   S
    Zr19   O98       0.66368      .   S
    Zr3    O99       1.01938  1_565   S
    Zr31   O99       1.01938      .   S
    Zr3    O100      1.01961      .   S
    Zr19   O100      1.01961      .   S
    Zr3    O101      1.20421      .   S
    Zr47   O101      1.20421      .   S
    Zr10   O102      0.67617      .   S
    Zr33   O102      0.67617      .   S
    Zr7    O103      0.67628      .   S
    Zr21   O103      0.67628      .   S
    Zr31   O104      0.67227      .   S
    Zr30   O104      0.67227  1_455   S
    Zr19   O105      0.67230      .   S
    Zr18   O105      0.67230  1_455   S
    Zr33   O106      0.66190      .   S
    Zr30   O106      0.66190      .   S
    Zr21   O107      0.66202      .   S
    Zr18   O107      0.66202      .   S
    Zr30   O108      1.02142      .   S
    Zr0    O108      1.02142  1_654   S
    Zr18   O109      1.01924      .   S
    Zr0    O109      1.01924  1_644   S
    N110   O111      1.07868      .   S
    Zr12   O111      1.80683      .   S
    N110   O112      1.19555      .   S
    Zr2    O112      2.21891  1_565   S
    N113   O114      1.07832      .   S
    Zr13   O114      1.80625      .   S
    N113   O115      1.19557      .   S
    Zr3    O115      2.21897  1_565   S
    N116   O117      1.07828      .   S
    Zr9    O117      1.80620      .   S
    N116   O118      1.19571      .   S
    Zr2    O118      2.21942      .   S
    N119   O120      1.19630      .   S
    Zr5    O120      2.22083      .   S
    N119   O121      1.07873      .   S
    Zr11   O121      1.80691      .   S
    N122   O123      1.19490      .   S
    Zr5    O123      2.21732      .   S
    N122   O124      1.07817      .   S
    Zr6    O124      1.80604      .   S
    N125   O126      1.07861      .   S
    Zr8    O126      1.80672      .   S
    N125   O127      1.19580      .   S
    Zr3    O127      2.21970      .   S
    N128   O129      1.07870      .   S
    Zr7    O129      1.80685      .   S
    N128   O130      1.19648      .   S
    Zr4    O130      2.22143      .   S
    N131   O132      1.19462      .   S
    Zr4    O132      2.21657      .   S
    N131   O133      1.07826      .   S
    Zr10   O133      1.80617      .   S
