# CIF file generated by openbabel 2.4.90, see http://openbabel.sf.net
data_I
_chemical_name_common ''
_cell_length_a 12.489
_cell_length_b 15.682
_cell_length_c 15.687
_cell_angle_alpha 120.01
_cell_angle_beta 90.011
_cell_angle_gamma 89.908
_space_group_name_H-M_alt 'P 1'
_space_group_name_Hall 'P 1'
loop_
    _symmetry_equiv_pos_as_xyz
    x,y,z
loop_
    _atom_site_label
    _atom_site_type_symbol
    _atom_site_fract_x
    _atom_site_fract_y
    _atom_site_fract_z
    _atom_site_occupancy
    Zn0     Zn   0.92561   0.49959   0.49995   1.000
    Zn1     Zn   0.09223   0.99993   0.49975   1.000
    Zn2     Zn   0.59223   0.99993   0.49975   1.000
    Zn3     Zn   0.25868   0.50023   0.00029   1.000
    Zn4     Zn   0.75867   0.50023   0.00029   1.000
    Zn5     Zn   0.42561   0.49959   0.49995   1.000
