# CIF file generated by openbabel 2.4.90, see http://openbabel.sf.net
data_I
_chemical_name_common ''
_cell_length_a 14.575
_cell_length_b 14.7
_cell_length_c 26.013
_cell_angle_alpha 90.15
_cell_angle_beta 90.408
_cell_angle_gamma 90.188
_space_group_name_H-M_alt 'P 1'
_space_group_name_Hall 'P 1'
loop_
    _symmetry_equiv_pos_as_xyz
    x,y,z
loop_
    _atom_site_label
    _atom_site_type_symbol
    _atom_site_fract_x
    _atom_site_fract_y
    _atom_site_fract_z
    _atom_site_occupancy
    C0      C    0.75756   0.64558   0.48232   1.000
    C1      C    0.72422   0.60094   0.59484   1.000
    C2      C    0.59972   0.62817   0.22374   1.000
    C3      C    0.60343   0.56262   0.33488   1.000
    C4      C    0.74017   0.35109   0.98094   1.000
    C5      C    0.77193   0.39873   0.09386   1.000
    C6      C    0.89843   0.37080   0.72402   1.000
    C7      C    0.89664   0.43205   0.83598   1.000
    C8      C    0.24267   0.14449   0.01932   1.000
    C9      C    0.27635   0.09668   0.90653   1.000
    C10     C    0.39881   0.12534   0.27592   1.000
    C11     C    0.39407   0.06091   0.16430   1.000
    C12     C    0.25562   0.85152   0.51898   1.000
    C13     C    0.22455   0.89932   0.40618   1.000
    C14     C    0.10102   0.86798   0.77584   1.000
    C15     C    0.10347   0.93360   0.66454   1.000
    C16     C    0.23893   0.35459   0.51738   1.000
    C17     C    0.27326   0.39933   0.40502   1.000
    C18     C    0.39897   0.36813   0.77619   1.000
    C19     C    0.39417   0.43670   0.66535   1.000
    C20     C    0.25996   0.64474   0.01899   1.000
    C21     C    0.22802   0.59691   0.90631   1.000
    C22     C    0.10072   0.62880   0.27502   1.000
    C23     C    0.10254   0.56464   0.16346   1.000
    C24     C    0.75928   0.85203   0.98200   1.000
    C25     C    0.72413   0.89851   0.09453   1.000
    C26     C    0.60112   0.87066   0.72398   1.000
    C27     C    0.60587   0.93377   0.83569   1.000
    C28     C    0.74031   0.14682   0.48223   1.000
    C29     C    0.77296   0.10114   0.59494   1.000
    C30     C    0.89893   0.12912   0.22398   1.000
    C31     C    0.89674   0.06601   0.33563   1.000
