# CIF file generated by openbabel 2.4.90, see http://openbabel.sf.net
data_I
_chemical_name_common ''
_cell_length_a 13.642
_cell_length_b 14.788
_cell_length_c 15.137
_cell_angle_alpha 90
_cell_angle_beta 90.001
_cell_angle_gamma 90
_space_group_name_H-M_alt 'P 1'
_space_group_name_Hall 'P 1'
loop_
    _symmetry_equiv_pos_as_xyz
    x,y,z
loop_
    _atom_site_label
    _atom_site_type_symbol
    _atom_site_fract_x
    _atom_site_fract_y
    _atom_site_fract_z
    _atom_site_occupancy
    Zr0     Zr   0.42061   0.30616   0.53959   1.000
    Zr1     Zr   0.92060   0.30612   0.53958   1.000
    Zr2     Zr   0.32941   0.69384   0.03960   1.000
    Zr3     Zr   0.82940   0.69377   0.03951   1.000
    Zr4     Zr   0.07940   0.80612   0.96046   1.000
    Zr5     Zr   0.57940   0.80612   0.96042   1.000
    Zr6     Zr   0.17061   0.19379   0.46049   1.000
    Zr7     Zr   0.67060   0.19383   0.46041   1.000
    N8      N    0.78338   0.06689   0.85619   1.000
    N9      N    0.03346   0.43304   0.14387   1.000
    N10     N    0.46664   0.93288   0.35620   1.000
    N11     N    0.71664   0.56688   0.64377   1.000
    N12     N    0.21661   0.56690   0.64384   1.000
    N13     N    0.28339   0.06690   0.85621   1.000
    N14     N    0.95895   0.93283   0.35616   1.000
    N15     N    0.53336   0.43309   0.14381   1.000
    C16     C    0.54706   0.34577   0.36835   1.000
    O17     O    0.50258   0.34596   0.42243   1.000
    O18     O    0.59036   0.29353   0.38504   1.000
    O19     O    0.54516   0.38011   0.29790   1.000
    C20     C    0.92111   0.16254   0.43967   1.000
    O21     O    0.93143   0.08991   0.40657   1.000
    O22     O    0.00121   0.16795   0.45439   1.000
    O23     O    0.93871   0.19603   0.47416   1.000
    O24     O    0.84050   0.17836   0.43962   1.000
    O25     O    0.90300   0.20643   0.45941   1.000
    C26     C    0.17112   0.33741   0.56025   1.000
    O27     O    0.18335   0.40999   0.59340   1.000
    O28     O    0.09051   0.32159   0.56034   1.000
    O29     O    0.15302   0.29351   0.54057   1.000
    O30     O    0.25122   0.33200   0.54552   1.000
    O31     O    0.18872   0.30390   0.52575   1.000
    C32     C    0.42112   0.16258   0.43968   1.000
    O33     O    0.40302   0.20646   0.45943   1.000
    O34     O    0.34052   0.17837   0.43965   1.000
    O35     O    0.43337   0.08995   0.40659   1.000
    O36     O    0.43872   0.19607   0.47418   1.000
    O37     O    0.50122   0.16799   0.45438   1.000
    C38     C    0.67113   0.33740   0.56032   1.000
    O39     O    0.68337   0.40997   0.59340   1.000
    O40     O    0.59052   0.32159   0.56037   1.000
    O41     O    0.65302   0.29351   0.54058   1.000
    O42     O    0.75123   0.33197   0.54562   1.000
    O43     O    0.68873   0.30390   0.52582   1.000
    C44     C    0.04701   0.34583   0.36848   1.000
    O45     O    0.00253   0.34601   0.42251   1.000
    O46     O    0.04517   0.38013   0.29800   1.000
    O47     O    0.09033   0.29355   0.38519   1.000
    C48     C    0.29707   0.15421   0.63163   1.000
    O49     O    0.29518   0.11987   0.70210   1.000
    O50     O    0.34037   0.20646   0.61494   1.000
    O51     O    0.25259   0.15401   0.57759   1.000
    C52     C    0.79705   0.15421   0.63163   1.000
    O53     O    0.84036   0.20644   0.61495   1.000
    O54     O    0.75257   0.15402   0.57756   1.000
    O55     O    0.79517   0.11987   0.70209   1.000
    C56     C    0.20296   0.65418   0.86842   1.000
    O57     O    0.20484   0.61985   0.79795   1.000
    O58     O    0.15965   0.70642   0.88511   1.000
    O59     O    0.24745   0.65399   0.92248   1.000
    C60     C    0.95299   0.84580   0.13155   1.000
    O61     O    0.95294   0.88006   0.20203   1.000
    O62     O    0.99748   0.84599   0.07753   1.000
    O63     O    0.90967   0.79353   0.11483   1.000
    C64     C    0.45293   0.84572   0.13169   1.000
    O65     O    0.40963   0.79350   0.11500   1.000
    O66     O    0.49741   0.84591   0.07759   1.000
    O67     O    0.45483   0.88003   0.20213   1.000
    C68     C    0.82887   0.83739   0.93968   1.000
    O69     O    0.81127   0.80388   0.97415   1.000
    O70     O    0.74877   0.83197   0.95438   1.000
    O71     O    0.81663   0.90997   0.90659   1.000
    O72     O    0.84698   0.79349   0.95941   1.000
    O73     O    0.90948   0.82158   0.93965   1.000
    C74     C    0.70290   0.65424   0.86827   1.000
    O75     O    0.65960   0.70646   0.88498   1.000
    O76     O    0.74739   0.65403   0.92235   1.000
    O77     O    0.70481   0.61988   0.79783   1.000
    C78     C    0.07890   0.66252   0.06034   1.000
    O79     O    0.15951   0.67835   0.06039   1.000
    O80     O    0.09700   0.70642   0.04060   1.000
    O81     O    0.06669   0.58995   0.09344   1.000
    O82     O    0.99880   0.66793   0.04562   1.000
    O83     O    0.06130   0.69602   0.02586   1.000
    C84     C    0.32887   0.83739   0.93969   1.000
    O85     O    0.34699   0.79351   0.95944   1.000
    O86     O    0.40948   0.82158   0.93964   1.000
    O87     O    0.31664   0.90997   0.90660   1.000
    O88     O    0.24878   0.83197   0.95440   1.000
    O89     O    0.31128   0.80390   0.97419   1.000
    C90     C    0.57889   0.66255   0.06032   1.000
    O91     O    0.49879   0.66798   0.04563   1.000
    O92     O    0.56128   0.69605   0.02583   1.000
    O93     O    0.56664   0.58999   0.09341   1.000
    O94     O    0.59699   0.70644   0.04058   1.000
    O95     O    0.65950   0.67835   0.06035   1.000
loop_
    _geom_bond_atom_site_label_1
    _geom_bond_atom_site_label_2
    _geom_bond_distance
    _geom_bond_site_symmetry_2
    _ccdc_geom_bond_type
    C16    O17       1.01904      .   S
    Zr0    O17       2.17760      .   S
    C16    O18       1.00479      .   S
    Zr7    O18       2.16181      .   S
    C16    O19       1.18150      .   S
    N15    O19       2.46571      .   S
    C20    O21       1.19347      .   S
    N14    O21       2.47362  1_565   S
    C20    O22       1.11813  1_655   S
    Zr6    O22       2.34417      .   S
    C20    O23       0.75871      .   S
    Zr1    O23       1.92144      .   S
    C20    O24       1.12421      .   S
    Zr7    O24       2.35026      .   S
    C20    O25       0.75611      .   S
    Zr1    O25       1.92443      .   S
    C26    O27       1.19638      .   S
    N12    O27       2.48458      .   S
    C26    O28       1.12429      .   S
    Zr1    O28       2.35031  1_655   S
    C26    O29       0.75585      .   S
    Zr6    O29       1.92395      .   S
    C26    O30       1.11811      .   S
    Zr0    O30       2.34387      .   S
    C26    O31       0.75893      .   S
    Zr6    O31       1.92055      .   S
    C32    O33       0.75603      .   S
    Zr0    O33       1.92439      .   S
    C32    O34       1.12420      .   S
    Zr6    O34       2.35028      .   S
    C32    O35       1.19677      .   S
    N10    O35       2.48660  1_565   S
    C32    O36       0.75870      .   S
    Zr0    O36       1.92132      .   S
    C32    O37       1.11795      .   S
    Zr7    O37       2.34381      .   S
    C38    O39       1.19602      .   S
    N11    O39       2.48429      .   S
    C38    O40       1.12423      .   S
    Zr0    O40       2.35035      .   S
    C38    O41       0.75601      .   S
    Zr7    O41       1.92431      .   S
    C38    O42       1.11795      .   S
    Zr1    O42       2.34380      .   S
    C38    O43       0.75868      .   S
    Zr7    O43       1.92125      .   S
    C44    O45       1.01835      .   S
    Zr1    O45       2.17660  1_655   S
    C44    O46       1.18161      .   S
    N9     O46       2.46600      .   S
    C44    O47       1.00536      .   S
    Zr6    O47       2.16221      .   S
    C48    O49       1.18160      .   S
    N13    O49       2.46607      .   S
    C48    O50       1.00483      .   S
    Zr0    O50       2.16163      .   S
    C48    O51       1.01861      .   S
    Zr6    O51       2.17679      .   S
    C52    O53       1.00470      .   S
    Zr1    O53       2.16163      .   S
    C52    O54       1.01895      .   S
    Zr7    O54       2.17750      .   S
    C52    O55       1.18148      .   S
    N8     O55       2.46589      .   S
    C56    O57       1.18156      .   S
    N12    O57       2.46588      .   S
    C56    O58       1.00490      .   S
    Zr4    O58       2.16176      .   S
    C56    O59       1.01882      .   S
    Zr2    O59       2.17727  1_554   S
    C60    O61       1.18105      .   S
    N14    O61       2.46151      .   S
    C60    O62       1.01831      .   S
    Zr4    O62       2.17639  1_456   S
    C60    O63       1.00534      .   S
    Zr3    O63       2.16229      .   S
    C64    O65       1.00451      .   S
    Zr2    O65       2.16157      .   S
    C64    O66       1.01927      .   S
    Zr5    O66       2.17790  1_556   S
    C64    O67       1.18108      .   S
    N10    O67       2.46485      .   S
    C68    O69       0.75859      .   S
    Zr3    O69       1.92134  1_554   S
    C68    O70       1.11800      .   S
    Zr5    O70       2.34385      .   S
    C68    O71       1.19613      .   S
    N8     O71       2.48455  1_545   S
    C68    O72       0.75611      .   S
    Zr3    O72       1.92419  1_554   S
    C68    O73       1.12430      .   S
    Zr4    O73       2.35041  1_455   S
    C74    O75       1.00458      .   S
    Zr5    O75       2.16172      .   S
    C74    O76       1.01918      .   S
    Zr3    O76       2.17755  1_554   S
    C74    O77       1.18136      .   S
    N11    O77       2.46549      .   S
    C78    O79       1.12425      .   S
    Zr2    O79       2.35029      .   S
    C78    O80       0.75611      .   S
    Zr4    O80       1.92433  1_556   S
    C78    O81       1.19610      .   S
    N9     O81       2.48440      .   S
    C78    O82       1.11812  1_455   S
    Zr3    O82       2.34412      .   S
    C78    O83       0.75866      .   S
    Zr4    O83       1.92140  1_556   S
    C84    O85       0.75600      .   S
    Zr2    O85       1.92418  1_554   S
    C84    O86       1.12426      .   S
    Zr5    O86       2.35035      .   S
    C84    O87       1.19609      .   S
    N13    O87       2.48449  1_545   S
    C84    O88       1.11800      .   S
    Zr4    O88       2.34391      .   S
    C84    O89       0.75863      .   S
    Zr2    O89       1.92116  1_554   S
    C90    O91       1.11797      .   S
    Zr2    O91       2.34384      .   S
    C90    O92       0.75867      .   S
    Zr5    O92       1.92111  1_556   S
    C90    O93       1.19596      .   S
    N15    O93       2.48429      .   S
    C90    O94       0.75595      .   S
    Zr5    O94       1.92423  1_556   S
    C90    O95       1.12422      .   S
    Zr3    O95       2.35031      .   S
