# CIF file generated by openbabel 2.4.90, see http://openbabel.sf.net
data_I
_chemical_name_common ''
_cell_length_a 5.7155
_cell_length_b 10.6165
_cell_length_c 16.195
_cell_angle_alpha 90.001
_cell_angle_beta 90.007
_cell_angle_gamma 92.9
_space_group_name_H-M_alt 'P 1'
_space_group_name_Hall 'P 1'
loop_
    _symmetry_equiv_pos_as_xyz
    x,y,z
loop_
    _atom_site_label
    _atom_site_type_symbol
    _atom_site_fract_x
    _atom_site_fract_y
    _atom_site_fract_z
    _atom_site_occupancy
    N0      N    0.45839   0.77071   0.22965   1.000
    N1      N    0.54125   0.72897   0.72965   1.000
    N2      N    0.54164   0.22899   0.77030   1.000
    N3      N    0.45869   0.27109   0.27022   1.000
    Zr4     Zr   0.24806   0.00372   0.93049   1.000
    O5      O    0.36105   0.07311   0.88810   1.000
    O6      O    0.28269   0.06824   0.88709   1.000
    O7      O    0.30127   0.93751   0.01991   1.000
    O8      O    0.33228   0.91789   0.87001   1.000
    Zr9     Zr   0.24791   0.50397   0.56947   1.000
    O10     O    0.33230   0.41802   0.62994   1.000
    O11     O    0.30124   0.43775   0.48003   1.000
    O12     O    0.36083   0.57325   0.61185   1.000
    O13     O    0.28244   0.56836   0.61288   1.000
    Zr14    Zr   0.75151   0.99535   0.06951   1.000
    O15     O    0.69845   0.06179   0.98007   1.000
    O16     O    0.66747   0.08159   0.12994   1.000
    O17     O    0.63868   0.92621   0.11188   1.000
    O18     O    0.71706   0.93108   0.11290   1.000
    Zr19    Zr   0.75156   0.49518   0.43051   1.000
    O20     O    0.71717   0.43108   0.38706   1.000
    O21     O    0.63878   0.42619   0.38810   1.000
    O22     O    0.66737   0.58132   0.37003   1.000
    O23     O    0.69836   0.56168   0.51992   1.000
loop_
    _geom_bond_atom_site_label_1
    _geom_bond_atom_site_label_2
    _geom_bond_distance
    _geom_bond_site_symmetry_2
    _ccdc_geom_bond_type
    Zr4    O5        1.17600      .   S
    N2     O5        2.69664      .   S
    Zr4    O6        0.99440      .   S
    N2     O6        2.90270      .   S
    Zr4    O7        1.64474  1_546   S
    N0     O7        3.95491      .   S
    Zr4    O8        1.43726  1_545   S
    N1     O8        3.29538      .   S
    Zr9    O10       1.43826      .   S
    N2     O10       3.29672      .   S
    Zr9    O11       1.64537      .   S
    N3     O11       3.95574      .   S
    Zr9    O12       1.17485      .   S
    N1     O12       2.69497      .   S
    Zr9    O13       0.99334      .   S
    N1     O13       2.90095      .   S
    Zr14   O15       1.64606  1_564   S
    N2     O15       3.95679      .   S
    Zr14   O16       1.43916  1_565   S
    N3     O16       3.29789      .   S
    Zr14   O17       1.17370      .   S
    N0     O17       2.69327      .   S
    Zr14   O18       0.99220      .   S
    N0     O18       2.89926      .   S
    Zr19   O20       0.99157      .   S
    N3     O20       2.89715      .   S
    Zr19   O21       1.17293      .   S
    N3     O21       2.69134      .   S
    Zr19   O22       1.43930      .   S
    N0     O22       3.29853      .   S
    Zr19   O23       1.64605      .   S
    N1     O23       3.95716      .   S
