# CIF file generated by openbabel 2.4.90, see http://openbabel.sf.net
data_I
_chemical_name_common ''
_cell_length_a 14.004
_cell_length_b 15.377
_cell_length_c 15.348
_cell_angle_alpha 88.196
_cell_angle_beta 85.279
_cell_angle_gamma 85.566
_space_group_name_H-M_alt 'P 1'
_space_group_name_Hall 'P 1'
loop_
    _symmetry_equiv_pos_as_xyz
    x,y,z
loop_
    _atom_site_label
    _atom_site_type_symbol
    _atom_site_fract_x
    _atom_site_fract_y
    _atom_site_fract_z
    _atom_site_occupancy
    Lv0     Lv   0.71154   0.15397   0.38724   1.000
    Lv1     Lv   0.28848   0.84604   0.61277   1.000
    Lv2     Lv   0.21062   0.15417   0.89397   1.000
    Lv3     Lv   0.78860   0.34479   0.61317   1.000
    Lv4     Lv   0.21141   0.65522   0.38681   1.000
    Lv5     Lv   0.78939   0.84584   0.10603   1.000
