# CIF file generated by openbabel 2.4.90, see http://openbabel.sf.net
data_I
_chemical_name_common ''
_cell_length_a 20.243
_cell_length_b 22.896
_cell_length_c 13.99
_cell_angle_alpha 90.005
_cell_angle_beta 100.938
_cell_angle_gamma 89.996
_space_group_name_H-M_alt 'P 1'
_space_group_name_Hall 'P 1'
loop_
    _symmetry_equiv_pos_as_xyz
    x,y,z
loop_
    _atom_site_label
    _atom_site_type_symbol
    _atom_site_fract_x
    _atom_site_fract_y
    _atom_site_fract_z
    _atom_site_occupancy
    Zn0     Zn   0.18637   0.50000   0.60058   1.000
    Zn1     Zn   0.68637   0.00000   0.60058   1.000
    Zn2     Zn   0.68637   0.50000   0.60058   1.000
    Zn3     Zn   0.31364   1.00000   0.39939   1.000
    Zn4     Zn   0.31363   0.50000   0.39939   1.000
    Zn5     Zn   0.81364   1.00000   0.39940   1.000
    Zn6     Zn   0.81364   0.50000   0.39938   1.000
    Zn7     Zn   0.18637   0.00000   0.60058   1.000
