# CIF file generated by openbabel 2.4.90, see http://openbabel.sf.net
data_I
_chemical_name_common ''
_cell_length_a 14.594
_cell_length_b 16.877
_cell_length_c 17.459
_cell_angle_alpha 90.002
_cell_angle_beta 95.55
_cell_angle_gamma 90.028
_space_group_name_H-M_alt 'P 1'
_space_group_name_Hall 'P 1'
loop_
    _symmetry_equiv_pos_as_xyz
    x,y,z
loop_
    _atom_site_label
    _atom_site_type_symbol
    _atom_site_fract_x
    _atom_site_fract_y
    _atom_site_fract_z
    _atom_site_occupancy
    C0      C    0.29357   0.21966   0.32288   1.000
    C1      C    0.79356   0.21965   0.32288   1.000
    C2      C    0.13595   0.85616   0.39924   1.000
    C3      C    0.63594   0.85617   0.39924   1.000
    C4      C    0.20641   0.78031   0.67713   1.000
    C5      C    0.70640   0.78031   0.67713   1.000
    C6      C    0.11393   0.35613   0.10078   1.000
    C7      C    0.61392   0.35614   0.10070   1.000
    C8      C    0.04324   0.28029   0.82290   1.000
    C9      C    0.54323   0.28029   0.82290   1.000
    C10     C    0.36404   0.14380   0.60070   1.000
    C11     C    0.86403   0.14380   0.60070   1.000
    C12     C    0.38606   0.64382   0.89923   1.000
    C13     C    0.88605   0.64382   0.89923   1.000
    C14     C    0.45675   0.71968   0.17711   1.000
    C15     C    0.95674   0.71968   0.17711   1.000
