# CIF file generated by openbabel 2.4.90, see http://openbabel.sf.net
data_I
_chemical_name_common ''
_cell_length_a 27.92
_cell_length_b 14.179
_cell_length_c 14.88
_cell_angle_alpha 65.279
_cell_angle_beta 62.007
_cell_angle_gamma 60.493
_space_group_name_H-M_alt 'P 1'
_space_group_name_Hall 'P 1'
loop_
    _symmetry_equiv_pos_as_xyz
    x,y,z
loop_
    _atom_site_label
    _atom_site_type_symbol
    _atom_site_fract_x
    _atom_site_fract_y
    _atom_site_fract_z
    _atom_site_occupancy
    N0      N    0.09094   0.35837   0.38038   1.000
    N1      N    0.59094   0.35838   0.38038   1.000
    N2      N    0.25004   0.49999   0.49995   1.000
    N3      N    0.75004   0.49999   0.49996   1.000
    N4      N    0.40913   0.64158   0.61945   1.000
    N5      N    0.90913   0.64158   0.61956   1.000
    N6      N    0.96034   0.14159   0.11920   1.000
    N7      N    0.46034   0.14159   0.11919   1.000
    N8      N    0.53976   0.85836   0.88034   1.000
    N9      N    0.25004   0.99998   0.99996   1.000
    N10     N    0.03912   0.85836   0.88034   1.000
    N11     N    0.75004   0.99998   0.99994   1.000
    Zr12    Zr   0.60708   0.24997   0.75004   1.000
    O13     O    0.54731   0.36563   0.71251   1.000
    O14     O    0.56513   0.22661   0.86414   1.000
    O15     O    0.61055   0.27333   0.63582   1.000
    O16     O    0.58643   0.13429   0.78751   1.000
    O17     O    0.64660   0.33036   0.68379   1.000
    O18     O    0.65369   0.16961   0.81622   1.000
    Zr19    Zr   0.05809   0.47616   0.86924   1.000
    O20     O    0.04626   0.58874   0.88398   1.000
    O21     O    0.01304   0.52379   0.79687   1.000
    Zr22    Zr   0.26922   0.97617   0.36924   1.000
    O23     O    0.32665   0.02380   0.29679   1.000
    O24     O    0.21725   0.08876   0.38400   1.000
    Zr25    Zr   0.94200   0.52381   0.13068   1.000
    O26     O    0.95367   0.41122   0.11584   1.000
    O27     O    0.98704   0.47617   0.20306   1.000
    Zr28    Zr   0.10708   0.24997   0.75004   1.000
    O29     O    0.04731   0.36563   0.71254   1.000
    O30     O    0.15369   0.16961   0.81622   1.000
    O31     O    0.06513   0.22661   0.86414   1.000
    O32     O    0.14660   0.33036   0.68379   1.000
    O33     O    0.08627   0.13429   0.78751   1.000
    O34     O    0.11055   0.27333   0.63582   1.000
    Zr35    Zr   0.73087   0.02379   0.63069   1.000
    O36     O    0.78284   0.91120   0.61593   1.000
    O37     O    0.67344   0.97616   0.70304   1.000
    Zr38    Zr   0.76922   0.97617   0.36924   1.000
    O39     O    0.82665   0.02380   0.29680   1.000
    O40     O    0.71725   0.08876   0.38400   1.000
    Zr41    Zr   0.89301   0.75000   0.24989   1.000
    O42     O    0.88953   0.72663   0.36412   1.000
    O43     O    0.93480   0.77335   0.13569   1.000
    O44     O    0.91366   0.86567   0.21233   1.000
    O45     O    0.84640   0.83036   0.18370   1.000
    O46     O    0.85348   0.66961   0.31613   1.000
    O47     O    0.95277   0.63433   0.28740   1.000
    Zr48    Zr   0.39300   0.74999   0.24989   1.000
    O49     O    0.43495   0.77335   0.13570   1.000
    O50     O    0.41366   0.86567   0.21232   1.000
    O51     O    0.38953   0.72663   0.36409   1.000
    O52     O    0.34639   0.83035   0.18370   1.000
    O53     O    0.35348   0.66961   0.31613   1.000
    O54     O    0.45277   0.63433   0.28739   1.000
    Zr55    Zr   0.23086   0.02379   0.63069   1.000
    O56     O    0.28283   0.91120   0.61579   1.000
    O57     O    0.17328   0.97616   0.70303   1.000
    Zr58    Zr   0.55809   0.47616   0.86924   1.000
    O59     O    0.54642   0.58874   0.88398   1.000
    O60     O    0.51304   0.52379   0.79684   1.000
    Zr61    Zr   0.44199   0.52381   0.13068   1.000
    O62     O    0.45367   0.41122   0.11584   1.000
    O63     O    0.48704   0.47617   0.20305   1.000
    O64     O    0.26341   0.97971   0.26100   1.000
    O65     O    0.23668   0.02025   0.73893   1.000
    O66     O    0.76341   0.97971   0.26099   1.000
    O67     O    0.80949   0.87471   0.44562   1.000
    O68     O    0.73668   0.02025   0.73893   1.000
    O69     O    0.30949   0.87471   0.44553   1.000
    O70     O    0.53037   0.37471   0.94554   1.000
    O71     O    0.46972   0.62525   0.05429   1.000
    O72     O    0.38382   0.52027   0.23892   1.000
    O73     O    0.11626   0.47970   0.76100   1.000
    O74     O    0.03037   0.37471   0.94554   1.000
    O75     O    0.69060   0.12525   0.55431   1.000
    O76     O    0.88382   0.52027   0.23892   1.000
    O77     O    0.96956   0.62525   0.05429   1.000
    O78     O    0.61627   0.47970   0.76100   1.000
    O79     O    0.19059   0.12524   0.55432   1.000
loop_
    _geom_bond_atom_site_label_1
    _geom_bond_atom_site_label_2
    _geom_bond_distance
    _geom_bond_site_symmetry_2
    _ccdc_geom_bond_type
    Zr12   O13       1.78853      .   S
    N4     O13       4.21013      .   S
    Zr12   O14       1.55208      .   S
    N7     O14       3.69351  1_554   S
    Zr12   O15       1.55371      .   S
    N1     O15       3.69738      .   S
    Zr12   O16       1.78851      .   S
    N8     O16       4.21011  1_565   S
    Zr12   O17       1.66327      .   S
    N3     O17       3.94108      .   S
    Zr12   O18       1.66294      .   S
    N11    O18       3.94036  1_565   S
    Zr19   O20       1.55275      .   S
    N10    O20       3.70721      .   S
    Zr19   O21       1.73902      .   S
    N5     O21       4.11018  1_655   S
    Zr22   O23       1.73909  1_565   S
    N7     O23       4.11030      .   S
    Zr22   O24       1.55390  1_565   S
    N0     O24       3.71206      .   S
    Zr25   O26       1.55504      .   S
    N6     O26       3.71490      .   S
    Zr25   O27       1.73904      .   S
    N0     O27       4.11018  1_455   S
    Zr28   O29       1.78836      .   S
    N5     O29       4.20961  1_655   S
    Zr28   O30       1.66299      .   S
    N9     O30       3.94050  1_565   S
    Zr28   O31       1.55209      .   S
    N6     O31       3.69352  1_654   S
    Zr28   O32       1.66327      .   S
    N2     O32       3.94110      .   S
    Zr28   O33       1.79128      .   S
    N10    O33       4.21821  1_565   S
    Zr28   O34       1.55367      .   S
    N0     O34       3.69727      .   S
    Zr35   O36       1.55386  1_545   S
    N5     O36       3.71199      .   S
    Zr35   O37       1.73904  1_545   S
    N8     O37       4.11008      .   S
    Zr38   O39       1.73907  1_565   S
    N6     O39       4.11027      .   S
    Zr38   O40       1.55389  1_565   S
    N1     O40       3.71206      .   S
    Zr41   O42       1.55369      .   S
    N5     O42       3.69732      .   S
    Zr41   O43       1.55152      .   S
    N10    O43       3.68963  1_456   S
    Zr41   O44       1.78818      .   S
    N6     O44       4.20918  1_545   S
    Zr41   O45       1.66304      .   S
    N11    O45       3.94067  1_556   S
    Zr41   O46       1.66325      .   S
    N3     O46       3.94104      .   S
    Zr41   O47       1.78835      .   S
    N0     O47       4.20960  1_455   S
    Zr48   O49       1.55303      .   S
    N8     O49       3.69582  1_556   S
    Zr48   O50       1.78818      .   S
    N7     O50       4.20918  1_545   S
    Zr48   O51       1.55328      .   S
    N4     O51       3.69611      .   S
    Zr48   O52       1.66301      .   S
    N9     O52       3.94054  1_556   S
    Zr48   O53       1.66325      .   S
    N2     O53       3.94104      .   S
    Zr48   O54       1.78830      .   S
    N1     O54       4.20965      .   S
    Zr55   O56       1.55414  1_545   S
    N4     O56       3.71201      .   S
    Zr55   O57       1.74265  1_545   S
    N10    O57       4.12070      .   S
    Zr58   O59       1.55434      .   S
    N8     O59       3.71314      .   S
    Zr58   O60       1.73941      .   S
    N4     O60       4.11125      .   S
    Zr61   O62       1.55504      .   S
    N7     O62       3.71492      .   S
    Zr61   O63       1.73905      .   S
    N1     O63       4.11016      .   S
    N9     O64       3.95351  1_556   S
    Zr22   O64       1.67119      .   S
    N9     O65       3.95342  1_565   S
    Zr55   O65       1.67115      .   S
    Zr38   O66       1.67124      .   S
    N11    O66       3.95368  1_556   S
    Zr38   O67       1.69227      .   S
    N5     O67       3.98878      .   S
    N11    O68       3.95323  1_565   S
    Zr35   O68       1.67108      .   S
    Zr22   O69       1.69148      .   S
    N4     O69       3.98851      .   S
    N7     O70       3.98823  1_554   S
    Zr58   O70       1.69203      .   S
    Zr61   O71       1.69216      .   S
    N8     O71       3.98850  1_556   S
    Zr61   O72       1.67088      .   S
    N2     O72       3.95286      .   S
    Zr19   O73       1.67089      .   S
    N2     O73       3.95295      .   S
    Zr19   O74       1.69201      .   S
    N6     O74       3.98819  1_654   S
    Zr35   O75       1.69231      .   S
    N1     O75       3.98888      .   S
    Zr25   O76       1.67089      .   S
    N3     O76       3.95290      .   S
    Zr25   O77       1.68967      .   S
    N10    O77       3.98063  1_456   S
    Zr58   O78       1.67088      .   S
    N3     O78       3.95291      .   S
    Zr55   O79       1.69228      .   S
    N0     O79       3.98880      .   S
