# CIF file generated by openbabel 2.4.90, see http://openbabel.sf.net
data_I
_chemical_name_common 'CdH12C18(NO)4'
_cell_length_a 11.736
_cell_length_b 14.229
_cell_length_c 14.35
_cell_angle_alpha 76.733
_cell_angle_beta 89.878
_cell_angle_gamma 65.675
_space_group_name_H-M_alt 'P 1'
_space_group_name_Hall 'P 1'
loop_
    _symmetry_equiv_pos_as_xyz
    x,y,z
loop_
    _atom_site_label
    _atom_site_type_symbol
    _atom_site_fract_x
    _atom_site_fract_y
    _atom_site_fract_z
    _atom_site_occupancy
    Cd0     Cd   0.90289   0.53736   0.37407   1.000
    Cd1     Cd   0.43987   0.46254   0.12589   1.000
    Cd2     Cd   0.09712   0.46259   0.62589   1.000
    Cd3     Cd   0.56015   0.53741   0.87406   1.000
    H4      H    0.80156   0.60290   0.79051   1.000
    H5      H    0.97583   0.63633   0.85675   1.000
    H6      H    0.08288   0.65923   0.38510   1.000
    H7      H    0.07746   0.83522   0.38307   1.000
    H8      H    0.67143   0.96046   0.35909   1.000
    H9      H    0.69479   0.77869   0.35697   1.000
    H10     H    0.13498   0.12169   0.36649   1.000
    H11     H    0.10995   0.30386   0.36844   1.000
    H12     H    0.72891   0.40166   0.39919   1.000
    H13     H    0.73483   0.23029   0.39200   1.000
    H14     H    0.76025   0.08062   0.36822   1.000
    H15     H    0.04919   0.00000   0.37958   1.000
    H16     H    0.40322   0.39724   0.70917   1.000
    H17     H    0.61129   0.36354   0.64301   1.000
    H18     H    0.74145   0.34089   0.11481   1.000
    H19     H    0.91232   0.16505   0.11714   1.000
    H20     H    0.63205   0.03901   0.14071   1.000
    H21     H    0.47322   0.22073   0.14243   1.000
    H22     H    0.25662   0.87845   0.13320   1.000
    H23     H    0.41343   0.69620   0.13128   1.000
    H24     H    0.13015   0.59842   0.10108   1.000
    H25     H    0.96496   0.76985   0.10831   1.000
    H26     H    0.84109   0.91920   0.13203   1.000
    H27     H    0.04282   0.00661   0.12025   1.000
    H28     H    0.19847   0.39705   0.20944   1.000
    H29     H    0.02422   0.36359   0.14321   1.000
    H30     H    0.91716   0.34072   0.61486   1.000
    H31     H    0.92257   0.16473   0.61689   1.000
    H32     H    0.32859   0.03949   0.64085   1.000
    H33     H    0.30523   0.22126   0.64297   1.000
    H34     H    0.86505   0.87827   0.63345   1.000
    H35     H    0.89008   0.69610   0.63151   1.000
    H36     H    0.27111   0.59828   0.60078   1.000
    H37     H    0.26519   0.76965   0.60796   1.000
    H38     H    0.23977   0.91933   0.63173   1.000
    H39     H    0.95084   0.00633   0.62037   1.000
    H40     H    0.59682   0.60270   0.29078   1.000
    H41     H    0.38874   0.63639   0.35693   1.000
    H42     H    0.25857   0.65906   0.88514   1.000
    H43     H    0.08770   0.83490   0.88281   1.000
    H44     H    0.36797   0.96095   0.85923   1.000
    H45     H    0.52680   0.77922   0.85752   1.000
    H46     H    0.74340   0.12150   0.86674   1.000
    H47     H    0.58659   0.30375   0.86867   1.000
    H48     H    0.86987   0.40153   0.89887   1.000
    H49     H    0.03507   0.23011   0.89163   1.000
    H50     H    0.15894   0.08075   0.86792   1.000
    H51     H    0.95720   0.00000   0.87970   1.000
    C52     C    0.82483   0.62315   0.04864   1.000
    C53     C    0.73148   0.59785   0.01364   1.000
    C54     C    0.80891   0.60770   0.86490   1.000
    C55     C    0.90363   0.62838   0.90179   1.000
    C56     C    0.83643   0.63606   0.15024   1.000
    C57     C    0.63574   0.57768   0.07637   1.000
    C58     C    0.99360   0.72863   0.37808   1.000
    C59     C    0.98930   0.82763   0.37735   1.000
    C60     C    0.87242   0.91507   0.37146   1.000
    C61     C    0.76472   0.89582   0.36436   1.000
    C62     C    0.77719   0.79454   0.36397   1.000
    C63     C    0.93731   0.15826   0.37872   1.000
    C64     C    0.04257   0.18223   0.37257   1.000
    C65     C    0.02988   0.28323   0.37456   1.000
    C66     C    0.81753   0.33876   0.39037   1.000
    C67     C    0.82190   0.24059   0.38740   1.000
    C68     C    0.85742   0.02165   0.37251   1.000
    C69     C    0.95206   0.05184   0.37716   1.000
    C70     C    0.44808   0.37686   0.45114   1.000
    C71     C    0.32926   0.40215   0.48612   1.000
    C72     C    0.41575   0.39237   0.63480   1.000
    C73     C    0.53136   0.37159   0.59795   1.000
    C74     C    0.47295   0.36414   0.34952   1.000
    C75     C    0.21384   0.42197   0.42341   1.000
    C76     C    0.72172   0.27136   0.12184   1.000
    C77     C    0.81661   0.17244   0.12273   1.000
    C78     C    0.78742   0.08482   0.12858   1.000
    C79     C    0.66051   0.10381   0.13550   1.000
    C80     C    0.57150   0.20505   0.13568   1.000
    C81     C    0.09553   0.84184   0.12131   1.000
    C82     C    0.22465   0.81788   0.12731   1.000
    C83     C    0.31277   0.71686   0.12529   1.000
    C84     C    0.15595   0.66132   0.10980   1.000
    C85     C    0.06232   0.75950   0.11283   1.000
    C86     C    0.87918   0.97832   0.12761   1.000
    C87     C    0.00396   0.94829   0.12284   1.000
    C88     C    0.17518   0.37680   0.95131   1.000
    C89     C    0.26854   0.40210   0.98631   1.000
    C90     C    0.19112   0.39224   0.13506   1.000
    C91     C    0.09640   0.37156   0.09817   1.000
    C92     C    0.16358   0.36389   0.84971   1.000
    C93     C    0.36427   0.42227   0.92358   1.000
    C94     C    0.00644   0.27132   0.62188   1.000
    C95     C    0.01073   0.17232   0.62260   1.000
    C96     C    0.12760   0.08488   0.62848   1.000
    C97     C    0.23529   0.10413   0.63559   1.000
    C98     C    0.22283   0.20541   0.63598   1.000
    C99     C    0.06271   0.84168   0.62123   1.000
    C100    C    0.95746   0.81773   0.62738   1.000
    C101    C    0.97015   0.71673   0.62539   1.000
    C102    C    0.18249   0.66119   0.60960   1.000
    C103    C    0.17812   0.75936   0.61256   1.000
    C104    C    0.14260   0.97830   0.62743   1.000
    C105    C    0.04796   0.94811   0.62279   1.000
    C106    C    0.55194   0.62308   0.54881   1.000
    C107    C    0.67076   0.59780   0.51384   1.000
    C108    C    0.58428   0.60757   0.36515   1.000
    C109    C    0.46867   0.62835   0.40200   1.000
    C110    C    0.52706   0.63580   0.65043   1.000
    C111    C    0.78617   0.57799   0.57654   1.000
    C112    C    0.27830   0.72860   0.87811   1.000
    C113    C    0.18341   0.82751   0.87722   1.000
    C114    C    0.21260   0.91513   0.87136   1.000
    C115    C    0.33952   0.89614   0.86444   1.000
    C116    C    0.42852   0.79491   0.86426   1.000
    C117    C    0.90449   0.15811   0.87864   1.000
    C118    C    0.77537   0.18206   0.87264   1.000
    C119    C    0.68724   0.28309   0.87465   1.000
    C120    C    0.84407   0.33862   0.89015   1.000
    C121    C    0.93770   0.24045   0.88712   1.000
    C122    C    0.12085   0.02163   0.87233   1.000
    C123    C    0.99606   0.05166   0.87710   1.000
    N124    N    0.91180   0.63715   0.99233   1.000
    N125    N    0.72397   0.59144   0.92158   1.000
    N126    N    0.88959   0.71098   0.37195   1.000
    N127    N    0.91892   0.36121   0.38404   1.000
    N128    N    0.54876   0.36282   0.50741   1.000
    N129    N    0.31487   0.40859   0.57813   1.000
    N130    N    0.60013   0.28877   0.12774   1.000
    N131    N    0.27974   0.63887   0.11590   1.000
    N132    N    0.08824   0.36279   0.00763   1.000
    N133    N    0.27606   0.40850   0.07837   1.000
    N134    N    0.11043   0.28896   0.62800   1.000
    N135    N    0.08109   0.63874   0.61591   1.000
    N136    N    0.45127   0.63712   0.49254   1.000
    N137    N    0.68515   0.59136   0.42182   1.000
    N138    N    0.39989   0.71118   0.87221   1.000
    N139    N    0.72028   0.36108   0.88405   1.000
    O140    O    0.89045   0.54690   0.21408   1.000
    O141    O    0.80011   0.72836   0.15994   1.000
    O142    O    0.61234   0.61604   0.14752   1.000
    O143    O    0.58535   0.52173   0.04893   1.000
    O144    O    0.43706   0.45344   0.28570   1.000
    O145    O    0.52975   0.27195   0.33977   1.000
    O146    O    0.22942   0.38303   0.35260   1.000
    O147    O    0.10736   0.47814   0.45061   1.000
    O148    O    0.10955   0.45305   0.78587   1.000
    O149    O    0.19989   0.27159   0.84001   1.000
    O150    O    0.38767   0.38392   0.85242   1.000
    O151    O    0.41465   0.47823   0.95101   1.000
    O152    O    0.56301   0.54650   0.71425   1.000
    O153    O    0.47024   0.72799   0.66019   1.000
    O154    O    0.77058   0.61696   0.64733   1.000
    O155    O    0.89265   0.52182   0.54935   1.000
loop_
    _geom_bond_atom_site_label_1
    _geom_bond_atom_site_label_2
    _geom_bond_distance
    _geom_bond_site_symmetry_2
    _ccdc_geom_bond_type
    N132   C91       1.34075      .   S
    N132   C88       1.35067  1_554   S
    C53    C52       1.41156      .   S
    C53    C57       1.51586      .   S
    C53    N125      1.35037  1_554   S
    C52    C56       1.52385      .   S
    C52    N124      1.35068  1_554   S
    O143   C57       1.29276      .   S
    O143   Cd1       2.36517      .   S
    C57    O142      1.24366      .   S
    N133   Cd1       2.49325      .   S
    N133   C90       1.34497      .   S
    N133   C89       1.35038  1_554   S
    C91    C90       1.39508      .   S
    C91    H29       1.09156      .   S
    H24    C84       1.08788      .   S
    H25    C85       1.09035  1_655   S
    C84    C85       1.38705      .   S
    C84    N131      1.35117      .   S
    C85    C81       1.40763      .   S
    H18    C76       1.08883      .   S
    N131   C83       1.35031      .   S
    N131   Cd1       2.40807      .   S
    H19    C77       1.08878      .   S
    H27    C87       1.09332  1_545   S
    C81    C87       1.45734      .   S
    C81    C82       1.40760      .   S
    C76    C77       1.38627      .   S
    C76    N130      1.35000      .   S
    C77    C78       1.40796      .   S
    C87    C86       1.35259  1_455   S
    C83    C82       1.38958      .   S
    C83    H23       1.09178      .   S
    Cd1    N130      2.40643      .   S
    Cd1    O144      2.26804      .   S
    C82    H22       1.09106      .   S
    C86    C78       1.45657  1_565   S
    C86    H26       1.09392      .   S
    N130   C80       1.34630      .   S
    C78    C79       1.40772      .   S
    C90    H28       1.09098      .   S
    C79    C80       1.38861      .   S
    C79    H20       1.09054      .   S
    C80    H21       1.08940      .   S
    C56    O141      1.24439      .   S
    C56    O140      1.28725      .   S
    O140   Cd0       2.26992      .   S
    O144   C74       1.28728      .   S
    H40    C108      1.09094      .   S
    O145   C74       1.24433      .   S
    C74    C70       1.52324      .   S
    O146   C75       1.24382      .   S
    H41    C109      1.09148      .   S
    H9     C62       1.08933      .   S
    H8     C61       1.09052      .   S
    C62    C61       1.38862      .   S
    C62    N126      1.34639      .   S
    C61    C60       1.40769      .   S
    C108   C109      1.39506      .   S
    C108   N137      1.34506      .   S
    H10    C64       1.09104      .   S
    H14    C68       1.09395      .   S
    H11    C65       1.09182      .   S
    C60    C68       1.45649  1_565   S
    C60    C59       1.40821      .   S
    N126   Cd0       2.40343      .   S
    N126   C58       1.35056      .   S
    C68    C69       1.35251      .   S
    C64    C65       1.38947      .   S
    C64    C63       1.40811  1_455   S
    Cd0    N127      2.40515      .   S
    Cd0    N137      2.49128      .   S
    Cd0    O147      2.36545  1_655   S
    C65    N127      1.35045  1_455   S
    C69    C63       1.45720      .   S
    C69    H15       1.06787  1_655   S
    C59    C58       1.38624      .   S
    C59    H7        1.08873  1_655   S
    C58    H6        1.08881  1_655   S
    C63    C67       1.40761      .   S
    N127   C66       1.35125      .   S
    C67    C66       1.38704      .   S
    C67    H13       1.09019      .   S
    C66    H12       1.08785      .   S
    C109   N136      1.34078      .   S
    N137   C107      1.34992      .   S
    C75    O147      1.29271      .   S
    C75    C71       1.51592      .   S
    C70    C71       1.41150      .   S
    C70    N128      1.35037      .   S
    C71    N129      1.34990      .   S
    N136   C106      1.35038      .   S
    N128   C73       1.34077      .   S
    C107   C106      1.41149      .   S
    C107   C111      1.51593      .   S
    C106   C110      1.52325      .   S
    O155   C111      1.29271      .   S
    O155   Cd2       2.36542  1_655   S
    C111   O154      1.24380      .   S
    N129   Cd2       2.49139      .   S
    N129   C72       1.34508      .   S
    C73    C72       1.39503      .   S
    C73    H17       1.09152      .   S
    H36    C102      1.08784      .   S
    H37    C103      1.09017      .   S
    C102   C103      1.38704      .   S
    C102   N135      1.35124      .   S
    C103   C99       1.40762      .   S
    H30    C94       1.08881  1_655   S
    N135   C101      1.35043  1_455   S
    N135   Cd2       2.40515      .   S
    H31    C95       1.08874  1_655   S
    H39    C105      1.09341  1_645   S
    C99    C105      1.45720      .   S
    C99    C100      1.40791  1_455   S
    C94    C95       1.38624      .   S
    C94    N134      1.35031      .   S
    C95    C96       1.40811      .   S
    C105   C104      1.35251      .   S
    C101   C100      1.38948      .   S
    C101   H35       1.09181      .   S
    Cd2    N134      2.40344      .   S
    Cd2    O148      2.26990      .   S
    C100   H34       1.09104      .   S
    C104   C96       1.45650  1_565   S
    C104   H38       1.09394      .   S
    N134   C98       1.34638      .   S
    C96    C97       1.40768      .   S
    C72    H16       1.09094      .   S
    C97    C98       1.38863      .   S
    C97    H32       1.09053      .   S
    C98    H33       1.08933      .   S
    C110   O153      1.24434      .   S
    C110   O152      1.28729      .   S
    O152   Cd3       2.26804      .   S
    O148   C92       1.28724      .   S
    H4     C54       1.09100      .   S
    O149   C92       1.24439      .   S
    C92    C88       1.52384      .   S
    O150   C93       1.24367      .   S
    H5     C55       1.09157      .   S
    H45    C116      1.08940      .   S
    H44    C115      1.09055      .   S
    C116   C115      1.38862      .   S
    C116   N138      1.34631      .   S
    C115   C114      1.40771      .   S
    C54    C55       1.39506      .   S
    C54    N125      1.34498      .   S
    H46    C118      1.09108      .   S
    H50    C122      1.09392      .   S
    H47    C119      1.09178      .   S
    C114   C122      1.45658  1_565   S
    C114   C113      1.40797      .   S
    N138   Cd3       2.40642      .   S
    N138   C112      1.34999      .   S
    C122   C123      1.35262  1_455   S
    C118   C119      1.38957      .   S
    C118   C117      1.40761      .   S
    Cd3    N139      2.40810      .   S
    Cd3    N125      2.49323      .   S
    Cd3    O151      2.36523      .   S
    C119   N139      1.35031      .   S
    C123   C117      1.45733      .   S
    C123   H51       1.00654      .   S
    C113   C112      1.38627      .   S
    C113   H43       1.08878      .   S
    C112   H42       1.08883      .   S
    C117   C121      1.40763      .   S
    N139   C120      1.35118      .   S
    C121   C120      1.38704      .   S
    C121   H49       1.09041  1_655   S
    C120   H48       1.08789      .   S
    C55    N124      1.34076      .   S
    C93    O151      1.29274      .   S
    C93    C89       1.51589      .   S
    C88    C89       1.41157      .   S
    O143   Cd3       2.47515  1_554   S
    O147   Cd2       2.48088      .   S
    O151   Cd1       2.47519  1_556   S
    O155   Cd0       2.48101      .   S
