# CIF file generated by openbabel 2.4.90, see http://openbabel.sf.net
data_I
_chemical_name_common ''
_cell_length_a 14.01
_cell_length_b 20.56
_cell_length_c 20.561
_cell_angle_alpha 89.85
_cell_angle_beta 93.673
_cell_angle_gamma 86.353
_space_group_name_H-M_alt 'P 1'
_space_group_name_Hall 'P 1'
loop_
    _symmetry_equiv_pos_as_xyz
    x,y,z
loop_
    _atom_site_label
    _atom_site_type_symbol
    _atom_site_fract_x
    _atom_site_fract_y
    _atom_site_fract_z
    _atom_site_occupancy
    C0      C    0.33040   0.30290   0.43002   1.000
    C1      C    0.33037   0.30290   0.93004   1.000
    C2      C    0.33039   0.80291   0.43002   1.000
    C3      C    0.33039   0.80291   0.93003   1.000
    C4      C    0.83037   0.30290   0.43000   1.000
    C5      C    0.83040   0.30291   0.93003   1.000
    C6      C    0.83041   0.80291   0.43002   1.000
    C7      C    0.83039   0.80291   0.93003   1.000
    C8      C    0.41961   0.43005   0.30294   1.000
    C9      C    0.41964   0.43006   0.80294   1.000
    C10     C    0.41962   0.93006   0.30294   1.000
    C11     C    0.41960   0.93006   0.80290   1.000
    C12     C    0.91963   0.43005   0.30294   1.000
    C13     C    0.91962   0.43005   0.80295   1.000
    C14     C    0.91963   0.93006   0.30290   1.000
    C15     C    0.91962   0.93006   0.80295   1.000
    C16     C    0.16961   0.19710   0.06998   1.000
    C17     C    0.16960   0.19710   0.56999   1.000
    C18     C    0.16962   0.69711   0.06998   1.000
    C19     C    0.16960   0.69711   0.56999   1.000
    C20     C    0.66962   0.19710   0.06998   1.000
    C21     C    0.66960   0.19710   0.56999   1.000
    C22     C    0.66961   0.69711   0.06998   1.000
    C23     C    0.66960   0.69711   0.56999   1.000
    C24     C    0.08039   0.06995   0.19707   1.000
    C25     C    0.08038   0.06995   0.69708   1.000
    C26     C    0.08038   0.56996   0.19707   1.000
    C27     C    0.08038   0.56996   0.69708   1.000
    C28     C    0.58039   0.06995   0.19707   1.000
    C29     C    0.58037   0.06995   0.69700   1.000
    C30     C    0.58038   0.56996   0.19707   1.000
    C31     C    0.58037   0.56996   0.69708   1.000
