# CIF file generated by openbabel 2.4.90, see http://openbabel.sf.net
data_I
_chemical_name_common ''
_cell_length_a 17.202
_cell_length_b 18.548
_cell_length_c 18.556
_cell_angle_alpha 77.633
_cell_angle_beta 62.433
_cell_angle_gamma 62.424
_space_group_name_H-M_alt 'P 1'
_space_group_name_Hall 'P 1'
loop_
    _symmetry_equiv_pos_as_xyz
    x,y,z
loop_
    _atom_site_label
    _atom_site_type_symbol
    _atom_site_fract_x
    _atom_site_fract_y
    _atom_site_fract_z
    _atom_site_occupancy
    K0      K    0.31230   0.37526   0.87521   1.000
    K1      K    0.31230   0.87525   0.37522   1.000
    K2      K    0.31230   0.87525   0.87521   1.000
    K3      K    0.81231   0.37526   0.37522   1.000
    K4      K    0.81231   0.37526   0.87521   1.000
    K5      K    0.81231   0.87525   0.37522   1.000
    K6      K    0.81231   0.87525   0.87521   1.000
    K7      K    0.18761   0.12495   0.12490   1.000
    K8      K    0.18761   0.12495   0.62488   1.000
    K9      K    0.18761   0.62494   0.12490   1.000
    K10     K    0.18761   0.62494   0.62488   1.000
    K11     K    0.68762   0.12495   0.12490   1.000
    K12     K    0.68762   0.12495   0.62488   1.000
    K13     K    0.68762   0.62494   0.12490   1.000
    K14     K    0.68762   0.62494   0.62488   1.000
    Y15     Y    0.06251   0.37504   0.37499   1.000
    Y16     Y    0.06251   0.37504   0.87490   1.000
    Y17     Y    0.06251   0.87503   0.37499   1.000
    Y18     Y    0.06251   0.87503   0.87497   1.000
    Y19     Y    0.56252   0.37504   0.37499   1.000
    Y20     Y    0.56252   0.37504   0.87497   1.000
    Y21     Y    0.56252   0.87503   0.37490   1.000
    Y22     Y    0.56252   0.87503   0.87497   1.000
    Y23     Y    0.43740   0.12516   0.12513   1.000
    Y24     Y    0.43740   0.12516   0.62512   1.000
    Y25     Y    0.43740   0.62516   0.12513   1.000
    Y26     Y    0.43740   0.62516   0.62512   1.000
    Y27     Y    0.93741   0.12516   0.12513   1.000
    Y28     Y    0.93741   0.12517   0.62512   1.000
    Y29     Y    0.93741   0.62516   0.12513   1.000
    Y30     Y    0.93741   0.62516   0.62512   1.000
    K31     K    0.31230   0.37526   0.37520   1.000
