# CIF file generated by openbabel 2.4.90, see http://openbabel.sf.net
data_I
_chemical_name_common ''
_cell_length_a 21.511
_cell_length_b 12.442
_cell_length_c 26.091
_cell_angle_alpha 91.126
_cell_angle_beta 89.998
_cell_angle_gamma 89.989
_space_group_name_H-M_alt 'P 1'
_space_group_name_Hall 'P 1'
loop_
    _symmetry_equiv_pos_as_xyz
    x,y,z
loop_
    _atom_site_label
    _atom_site_type_symbol
    _atom_site_fract_x
    _atom_site_fract_y
    _atom_site_fract_z
    _atom_site_occupancy
    Zn0     Zn   0.88244   0.57400   0.55985   1.000
    Zn1     Zn   0.38353   0.92600   0.94016   1.000
    Zn2     Zn   0.88244   0.92606   0.94011   1.000
    Zn3     Zn   0.11757   0.42602   0.44012   1.000
    Zn4     Zn   0.61655   0.42594   0.44010   1.000
    Zn5     Zn   0.11757   0.07397   0.05980   1.000
    Zn6     Zn   0.61649   0.07402   0.05981   1.000
    Zn7     Zn   0.25057   0.50012   0.49999   1.000
    Zn8     Zn   0.74944   0.49991   0.49998   1.000
    Zn9     Zn   0.25055   0.99990   0.99998   1.000
    Zn10    Zn   0.74946   0.00011   0.00000   1.000
    Zn11    Zn   0.38347   0.57409   0.55987   1.000
    C12     C    0.36640   0.14786   0.97531   1.000
    C13     C    0.86559   0.14846   0.97473   1.000
    C14     C    0.22972   0.02086   0.11831   1.000
    C15     C    0.72852   0.02091   0.11830   1.000
    C16     C    0.35790   0.65895   0.46287   1.000
    C17     C    0.85681   0.65909   0.46294   1.000
    C18     C    0.36644   0.35199   0.52529   1.000
    C19     C    0.86555   0.35159   0.52524   1.000
    C20     C    0.22967   0.47912   0.38165   1.000
    C21     C    0.72863   0.47899   0.38166   1.000
    C22     C    0.35766   0.84093   0.03705   1.000
    C23     C    0.85684   0.84096   0.03700   1.000
    C24     C    0.27150   0.97912   0.88167   1.000
    C25     C    0.77030   0.97918   0.88166   1.000
    C26     C    0.14321   0.34095   0.53703   1.000
    C27     C    0.64212   0.34109   0.53710   1.000
    C28     C    0.13447   0.64845   0.47473   1.000
    C29     C    0.63358   0.64805   0.47467   1.000
    C30     C    0.27139   0.52104   0.61830   1.000
    C31     C    0.77035   0.52092   0.61832   1.000
    C32     C    0.14317   0.15908   0.96292   1.000
    C33     C    0.64236   0.15911   0.96292   1.000
    C34     C    0.13443   0.85158   0.02524   1.000
    C35     C    0.63362   0.85218   0.02465   1.000
    O36     O    0.30866   0.36972   0.51807   1.000
    O37     O    0.80775   0.36915   0.51799   1.000
    O38     O    0.40775   0.42194   0.53754   1.000
    O39     O    0.90670   0.42173   0.53758   1.000
    O40     O    0.32773   0.60647   0.49836   1.000
    O41     O    0.82662   0.60651   0.49840   1.000
    O42     O    0.41551   0.67075   0.46447   1.000
    O43     O    0.91443   0.67091   0.46454   1.000
    O44     O    0.26390   0.04056   0.07959   1.000
    O45     O    0.76271   0.04093   0.07960   1.000
    O46     O    0.17041   0.02766   0.12006   1.000
    O47     O    0.66917   0.02737   0.12001   1.000
    O48     O    0.30847   0.13048   0.98189   1.000
    O49     O    0.80780   0.13093   0.98200   1.000
    O50     O    0.40777   0.07748   0.96381   1.000
    O51     O    0.90673   0.07829   0.96236   1.000
    O52     O    0.32753   0.89331   0.00151   1.000
    O53     O    0.82665   0.89355   0.00159   1.000
    O54     O    0.41529   0.82920   0.03553   1.000
    O55     O    0.91446   0.82912   0.03544   1.000
    O56     O    0.26389   0.45943   0.42030   1.000
    O57     O    0.76277   0.45905   0.42037   1.000
    O58     O    0.17036   0.47232   0.37993   1.000
    O59     O    0.66930   0.47240   0.37990   1.000
    O60     O    0.19226   0.63089   0.48198   1.000
    O61     O    0.69135   0.63031   0.48190   1.000
    O62     O    0.09331   0.57831   0.46239   1.000
    O63     O    0.59227   0.57810   0.46243   1.000
    O64     O    0.17339   0.39352   0.50157   1.000
    O65     O    0.67229   0.39356   0.50161   1.000
    O66     O    0.08559   0.32912   0.53543   1.000
    O67     O    0.58451   0.32928   0.53550   1.000
    O68     O    0.23730   0.95911   0.92032   1.000
    O69     O    0.73612   0.95949   0.92030   1.000
    O70     O    0.33085   0.97266   0.87996   1.000
    O71     O    0.82961   0.97236   0.87991   1.000
    O72     O    0.19221   0.86912   0.01797   1.000
    O73     O    0.69155   0.86955   0.01808   1.000
    O74     O    0.09328   0.92174   0.03761   1.000
    O75     O    0.59224   0.92255   0.03615   1.000
    O76     O    0.17336   0.10648   0.99838   1.000
    O77     O    0.67248   0.10673   0.99846   1.000
    O78     O    0.08555   0.17091   0.96452   1.000
    O79     O    0.58473   0.17084   0.96444   1.000
    O80     O    0.23724   0.54098   0.57960   1.000
    O81     O    0.73613   0.54061   0.57962   1.000
    O82     O    0.33071   0.52763   0.62007   1.000
    O83     O    0.82966   0.52771   0.62004   1.000
    Ts84    Ts   0.87919   0.63129   0.56784   1.000
    Ts85    Ts   0.91304   0.58863   0.56672   1.000
    Ts86    Ts   0.38006   0.86867   0.93216   1.000
    Ts87    Ts   0.41396   0.91121   0.93316   1.000
    Ts88    Ts   0.87920   0.86880   0.93210   1.000
    Ts89    Ts   0.91305   0.91143   0.93323   1.000
    Ts90    Ts   0.12082   0.36874   0.43213   1.000
    Ts91    Ts   0.08697   0.41141   0.43325   1.000
    Ts92    Ts   0.62006   0.36858   0.43214   1.000
    Ts93    Ts   0.58611   0.41104   0.43317   1.000
    Ts94    Ts   0.12082   0.13123   0.06780   1.000
    Ts95    Ts   0.08697   0.08860   0.06667   1.000
    Ts96    Ts   0.61996   0.13136   0.06781   1.000
    Ts97    Ts   0.58606   0.08883   0.06681   1.000
    Ts98    Ts   0.37995   0.63145   0.56782   1.000
    Ts99    Ts   0.41390   0.58899   0.56680   1.000
    Og100   Og   0.37313   0.18563   0.97775   1.000
    Og101   Og   0.87240   0.18621   0.97724   1.000
    Og102   Og   0.24075   0.00934   0.13395   1.000
    Og103   Og   0.73956   0.00942   0.13394   1.000
    Og104   Og   0.34496   0.67481   0.44933   1.000
    Og105   Og   0.84387   0.67496   0.44940   1.000
    Og106   Og   0.37316   0.31422   0.52281   1.000
    Og107   Og   0.87236   0.31384   0.52273   1.000
    Og108   Og   0.24067   0.49063   0.36600   1.000
    Og109   Og   0.73968   0.49052   0.36603   1.000
    Og110   Og   0.34470   0.82507   0.05057   1.000
    Og111   Og   0.84391   0.82509   0.05055   1.000
    Og112   Og   0.26046   0.99062   0.86603   1.000
    Og113   Og   0.75927   0.99070   0.86602   1.000
    Og114   Og   0.15615   0.32508   0.55057   1.000
    Og115   Og   0.65506   0.32523   0.55064   1.000
    Og116   Og   0.12766   0.68620   0.47724   1.000
    Og117   Og   0.62686   0.68581   0.47716   1.000
    Og118   Og   0.26033   0.50952   0.63393   1.000
    Og119   Og   0.75935   0.50941   0.63397   1.000
    Og120   Og   0.15611   0.17495   0.94938   1.000
    Og121   Og   0.65532   0.17497   0.94940   1.000
    Og122   Og   0.12762   0.81383   0.02273   1.000
    Og123   Og   0.62689   0.81441   0.02221   1.000
loop_
    _geom_bond_atom_site_label_1
    _geom_bond_atom_site_label_2
    _geom_bond_distance
    _geom_bond_site_symmetry_2
    _ccdc_geom_bond_type
    O52    C22       1.31455      .   S
    O52    Zn1       2.05037  1_554   S
    O53    C23       1.31419      .   S
    O53    Zn2       2.04999  1_554   S
    O72    C34       1.27689      .   S
    O72    Zn9       2.11506  1_554   S
    O73    C35       1.27693      .   S
    O73    Zn10      2.10798  1_565   S
    C35    O75       1.28004      .   S
    C34    O74       1.28000      .   S
    O55    C23       1.24872      .   S
    O54    C22       1.24874      .   S
    O75    Zn6       2.03948  1_565   S
    O74    Zn5       2.03792  1_565   S
    Zn5    O46       2.03252      .   S
    Zn5    O76       2.04875  1_554   S
    Zn6    O47       2.03067      .   S
    Zn6    O77       2.05040  1_554   S
    O44    C14       1.27710      .   S
    O44    Zn9       2.14743  1_544   S
    O45    C15       1.27763      .   S
    O45    Zn10      2.14734      .   S
    C15    O47       1.27989      .   S
    C14    O46       1.27936      .   S
    O59    C21       1.27956      .   S
    O59    Zn4       2.03098      .   S
    O58    C20       1.27937      .   S
    O58    Zn3       2.03057      .   S
    C20    O56       1.27607      .   S
    C21    O57       1.27704      .   S
    O56    Zn7       2.14939      .   S
    O57    Zn8       2.14787      .   S
    Zn4    O63       2.03773      .   S
    Zn4    O65       2.04961      .   S
    Zn3    O62       2.03867      .   S
    Zn3    O64       2.04977      .   S
    O62    C28       1.27998      .   S
    O63    C29       1.28003      .   S
    C16    O42       1.24869      .   S
    C16    O40       1.31480      .   S
    C17    O43       1.24877      .   S
    C17    O41       1.31508      .   S
    C29    O61       1.27693      .   S
    C28    O60       1.27692      .   S
    O61    Zn8       2.10841      .   S
    O60    Zn7       2.11442      .   S
    O40    Zn11      2.04958      .   S
    O41    Zn0       2.04973      .   S
    Zn8    O37       2.11436      .   S
    Zn8    O81       2.14816      .   S
    Zn7    O36       2.10843      .   S
    Zn7    O80       2.14789      .   S
    O64    C26       1.31501      .   S
    O65    C27       1.31470      .   S
    O37    C19       1.27694      .   S
    O36    C18       1.27689      .   S
    C19    O39       1.27992      .   S
    C18    O38       1.28005      .   S
    O66    C26       1.24877      .   S
    O67    C27       1.24871      .   S
    O38    Zn11      2.03765      .   S
    O39    Zn0       2.03862      .   S
    Zn0    O83       2.03051      .   S
    Zn11   O82       2.03096      .   S
    O80    C30       1.27685      .   S
    O81    C31       1.27712      .   S
    C30    O82       1.27956      .   S
    C31    O83       1.27938      .   S
    O71    C25       1.27935      .   S
    O71    Zn2       2.03127      .   S
    O70    C24       1.27987      .   S
    O70    Zn1       2.03070      .   S
    C25    O69       1.27546      .   S
    C24    O68       1.27665      .   S
    O69    Zn10      2.14959  1_566   S
    O68    Zn9       2.14878      .   S
    Zn2    O51       2.03837  1_565   S
    Zn1    O50       2.03954  1_565   S
    O51    C13       1.28001      .   S
    C33    O79       1.24876      .   S
    C33    O77       1.31455      .   S
    C32    O78       1.24873      .   S
    C32    O76       1.31516      .   S
    O50    C12       1.28000      .   S
    C13    O49       1.27686      .   S
    C12    O48       1.27695      .   S
    O48    Zn9       2.10841  1_545   S
    O49    Zn10      2.11557  1_556   S
    O40    Zn7       2.12376      .   S
    O41    Zn8       2.12617      .   S
    O52    Zn9       2.12229  1_554   S
    O53    Zn10      2.12565  1_565   S
    O64    Zn7       2.12608      .   S
    O65    Zn8       2.12366      .   S
    O76    Zn9       2.12565  1_545   S
    O77    Zn10      2.12224  1_556   S
    Zn0    Ts84      0.74200      .   S
    Zn0    Ts85      0.70523      .   S
    Zn1    Ts86      0.74306      .   S
    Zn1    Ts87      0.70311      .   S
    Zn2    Ts88      0.74179      .   S
    Zn2    Ts89      0.70526      .   S
    Zn3    Ts90      0.74196      .   S
    Zn3    Ts91      0.70515      .   S
    Zn4    Ts92      0.74314      .   S
    Zn4    Ts93      0.70308      .   S
    Zn5    Ts94      0.74181      .   S
    Zn5    Ts95      0.70516      .   S
    Zn6    Ts96      0.74314      .   S
    Zn6    Ts97      0.70311      .   S
    Zn11   Ts98      0.74317      .   S
    Zn11   Ts99      0.70312      .   S
    C12    Og100     0.49464      .   S
    C13    Og101     0.49507      .   S
    C14    Og102     0.49555      .   S
    C15    Og103     0.49566      .   S
    C16    Og104     0.49386      .   S
    C17    Og105     0.49391      .   S
    C18    Og106     0.49456      .   S
    C19    Og107     0.49505      .   S
    C20    Og108     0.49553      .   S
    C21    Og109     0.49562      .   S
    C22    Og110     0.49389      .   S
    C23    Og111     0.49415      .   S
    C24    Og112     0.49565      .   S
    C25    Og113     0.49555      .   S
    C26    Og114     0.49391      .   S
    C27    Og115     0.49385      .   S
    C28    Og116     0.49506      .   S
    C29    Og117     0.49458      .   S
    C30    Og118     0.49568      .   S
    C31    Og119     0.49552      .   S
    C32    Og120     0.49393      .   S
    C33    Og121     0.49390      .   S
    C34    Og122     0.49506      .   S
    C35    Og123     0.49463      .   S
