# CIF file generated by openbabel 2.4.90, see http://openbabel.sf.net
data_I
_chemical_name_common ''
_cell_length_a 20.216
_cell_length_b 23.15
_cell_length_c 14.866
_cell_angle_alpha 91.111
_cell_angle_beta 89.98
_cell_angle_gamma 89.953
_space_group_name_H-M_alt 'P 1'
_space_group_name_Hall 'P 1'
loop_
    _symmetry_equiv_pos_as_xyz
    x,y,z
loop_
    _atom_site_label
    _atom_site_type_symbol
    _atom_site_fract_x
    _atom_site_fract_y
    _atom_site_fract_z
    _atom_site_occupancy
    H0      H    0.37878   0.42832   0.37132   1.000
    H1      H    0.37878   0.92831   0.37132   1.000
    H2      H    0.87877   0.42829   0.37133   1.000
    H3      H    0.87877   0.92830   0.37133   1.000
    H4      H    0.02503   0.23722   0.27027   1.000
    H5      H    0.02499   0.73723   0.27028   1.000
    H6      H    0.52500   0.23723   0.27029   1.000
    H7      H    0.52504   0.73723   0.27026   1.000
    H8      H    0.30480   0.28102   0.04455   1.000
    H9      H    0.30481   0.78103   0.04453   1.000
    H10     H    0.80479   0.28102   0.04458   1.000
    H11     H    0.80479   0.78101   0.04462   1.000
    H12     H    0.10272   0.49082   0.23310   1.000
    H13     H    0.10271   0.99084   0.23314   1.000
    H14     H    0.60274   0.49081   0.23310   1.000
    H15     H    0.60275   0.99082   0.23309   1.000
    H16     H    0.08084   0.34530   0.91955   1.000
    H17     H    0.08080   0.84531   0.91948   1.000
    H18     H    0.58083   0.34530   0.91955   1.000
    H19     H    0.58086   0.84531   0.91956   1.000
    H20     H    0.35406   0.00144   0.01222   1.000
    H21     H    0.35406   0.50143   0.01220   1.000
    H22     H    0.85405   0.00142   0.01220   1.000
    H23     H    0.85405   0.50143   0.01219   1.000
    H24     H    0.12882   0.32185   0.12870   1.000
    H25     H    0.12882   0.82188   0.12875   1.000
    H26     H    0.62881   0.32186   0.12876   1.000
    H27     H    0.62882   0.82186   0.12875   1.000
    H28     H    0.27512   0.01277   0.22983   1.000
    H29     H    0.27505   0.51278   0.22980   1.000
    H30     H    0.77504   0.01277   0.22981   1.000
    H31     H    0.77512   0.51278   0.22984   1.000
    H32     H    0.05476   0.46905   0.45605   1.000
    H33     H    0.05477   0.96907   0.45605   1.000
    H34     H    0.55475   0.46907   0.45604   1.000
    H35     H    0.55476   0.96908   0.45601   1.000
    H36     H    0.35284   0.25917   0.26685   1.000
    H37     H    0.35283   0.75917   0.26683   1.000
    H38     H    0.85281   0.25916   0.26684   1.000
    H39     H    0.85284   0.75918   0.26686   1.000
    H40     H    0.33100   0.40463   0.58016   1.000
    H41     H    0.33101   0.90464   0.58016   1.000
    H42     H    0.83097   0.40463   0.58020   1.000
    H43     H    0.83099   0.90464   0.58018   1.000
    H44     H    0.10414   0.24850   0.48771   1.000
    H45     H    0.10414   0.74850   0.48770   1.000
    H46     H    0.60413   0.24849   0.48770   1.000
    H47     H    0.60413   0.74851   0.48770   1.000
    H48     H    0.12121   0.07172   0.62863   1.000
    H49     H    0.12121   0.57172   0.62862   1.000
    H50     H    0.62120   0.07172   0.62860   1.000
    H51     H    0.62121   0.57174   0.62863   1.000
    C52     C    0.98797   0.74027   0.79216   1.000
    C53     C    0.14137   0.21157   0.94880   1.000
    C54     C    0.14137   0.71158   0.94881   1.000
    C55     C    0.64135   0.21155   0.94888   1.000
    H56     H    0.47491   0.26279   0.72972   1.000
    H57     H    0.47495   0.76280   0.72970   1.000
    H58     H    0.97489   0.26279   0.72972   1.000
    H59     H    0.97491   0.76279   0.72900   1.000
    H60     H    0.19519   0.21901   0.95538   1.000
    H61     H    0.19520   0.71900   0.95536   1.000
    H62     H    0.69518   0.21898   0.95545   1.000
    H63     H    0.69519   0.71900   0.95542   1.000
    H64     H    0.39730   0.00918   0.76679   1.000
    H65     H    0.39726   0.50920   0.76684   1.000
    H66     H    0.89724   0.00920   0.76685   1.000
    H67     H    0.89726   0.50920   0.76683   1.000
    H68     H    0.41918   0.15471   0.08046   1.000
    H69     H    0.41915   0.65472   0.08042   1.000
    H70     H    0.91912   0.15471   0.08040   1.000
    H71     H    0.91913   0.65472   0.08039   1.000
    H72     H    0.14593   0.49859   0.98776   1.000
    H73     H    0.14594   0.99859   0.98775   1.000
    H74     H    0.64592   0.49859   0.98776   1.000
    H75     H    0.64593   0.99859   0.98770   1.000
    H76     H    0.37117   0.17814   0.87120   1.000
    H77     H    0.37117   0.67816   0.87120   1.000
    H78     H    0.87116   0.17815   0.87120   1.000
    H79     H    0.87116   0.67816   0.87120   1.000
    H80     H    0.22485   0.48723   0.77009   1.000
    H81     H    0.22488   0.98724   0.77010   1.000
    H82     H    0.72488   0.48724   0.77012   1.000
    H83     H    0.72487   0.98724   0.77011   1.000
    O84     O    0.37564   0.32620   0.11165   1.000
    O85     O    0.37564   0.82622   0.11161   1.000
    O86     O    0.87563   0.32619   0.11167   1.000
    O87     O    0.87564   0.82618   0.11171   1.000
    O88     O    0.39653   0.25986   0.00050   1.000
    H89     H    0.44523   0.03100   0.54381   1.000
    H90     H    0.44523   0.53095   0.54391   1.000
    H91     H    0.94522   0.03094   0.54392   1.000
    H92     H    0.94522   0.53095   0.54392   1.000
    H93     H    0.14718   0.24085   0.73313   1.000
    H94     H    0.14714   0.74084   0.73309   1.000
    H95     H    0.64713   0.24084   0.73310   1.000
    H96     H    0.64715   0.74085   0.73311   1.000
    H97     H    0.16899   0.09539   0.41978   1.000
    H98     H    0.16900   0.59539   0.41978   1.000
    H99     H    0.66898   0.09538   0.41979   1.000
    H100    H    0.66900   0.59539   0.41976   1.000
    H101    H    0.39585   0.25151   0.51225   1.000
    H102    H    0.39586   0.75152   0.51225   1.000
    H103    H    0.89584   0.25151   0.51224   1.000
    H104    H    0.89585   0.75153   0.51226   1.000
    C105    C    0.41953   0.41216   0.32830   1.000
    C106    C    0.41953   0.91216   0.32829   1.000
    C107    C    0.91952   0.41215   0.32830   1.000
    C108    C    0.91953   0.91216   0.32831   1.000
    C109    C    0.01200   0.25975   0.20780   1.000
    C110    C    0.01198   0.75976   0.20780   1.000
    C111    C    0.51197   0.25975   0.20782   1.000
    C112    C    0.51199   0.75976   0.20780   1.000
    C113    C    0.35863   0.28845   0.05111   1.000
    C114    C    0.35863   0.78846   0.05108   1.000
    C115    C    0.85861   0.28845   0.05112   1.000
    C116    C    0.85862   0.78844   0.05116   1.000
    C117    C    0.06681   0.47613   0.18132   1.000
    C118    C    0.06681   0.97614   0.18133   1.000
    C119    C    0.56681   0.47613   0.18131   1.000
    C120    C    0.56682   0.97613   0.18131   1.000
    C121    C    0.05078   0.37180   0.96650   1.000
    C122    C    0.05075   0.87181   0.96647   1.000
    C123    C    0.55077   0.37180   0.96652   1.000
    C124    C    0.55078   0.87181   0.96652   1.000
    C125    C    0.36309   0.46504   0.05733   1.000
    C126    C    0.36310   0.96506   0.05730   1.000
    C127    C    0.86308   0.46504   0.05732   1.000
    C128    C    0.86308   0.96504   0.05733   1.000
    C129    C    0.16956   0.33794   0.17170   1.000
    C130    C    0.16957   0.83796   0.17170   1.000
    C131    C    0.66955   0.33794   0.17176   1.000
    C132    C    0.66956   0.83795   0.17170   1.000
    C133    C    0.26190   0.49026   0.29223   1.000
    C134    C    0.26193   0.99027   0.29224   1.000
    C135    C    0.76192   0.49026   0.29225   1.000
    C136    C    0.76191   0.99027   0.29224   1.000
    C137    C    0.10858   0.46150   0.44940   1.000
    C138    C    0.10858   0.96152   0.44940   1.000
    C139    C    0.60857   0.46151   0.44940   1.000
    C140    C    0.60857   0.96153   0.44937   1.000
    C141    C    0.31687   0.27386   0.31865   1.000
    C142    C    0.31687   0.77387   0.31860   1.000
    C143    C    0.81686   0.27386   0.31865   1.000
    C144    C    0.81688   0.77387   0.31866   1.000
    C145    C    0.30084   0.37817   0.53334   1.000
    C146    C    0.30085   0.87817   0.53334   1.000
    C147    C    0.80082   0.37816   0.53336   1.000
    C148    C    0.80083   0.87817   0.53336   1.000
    C149    C    0.11312   0.28491   0.44262   1.000
    C150    C    0.11312   0.78492   0.44261   1.000
    C151    C    0.61311   0.28491   0.44262   1.000
    C152    C    0.61311   0.78492   0.44262   1.000
    C153    C    0.08046   0.08786   0.67160   1.000
    C154    C    0.08046   0.58787   0.67165   1.000
    C155    C    0.58045   0.08786   0.67166   1.000
    C156    C    0.58046   0.58787   0.67166   1.000
    C157    C    0.48798   0.24026   0.79210   1.000
    C158    C    0.48800   0.74027   0.79216   1.000
    C159    C    0.98795   0.24026   0.79218   1.000
    O160    O    0.25000   0.97997   0.63849   1.000
    O161    O    0.74999   0.47996   0.63850   1.000
    O162    O    0.74999   0.97997   0.63849   1.000
    O163    O    0.37449   0.07651   0.61070   1.000
    O164    O    0.37449   0.57651   0.61079   1.000
    O165    O    0.87447   0.07649   0.61081   1.000
    O166    O    0.87447   0.57650   0.61080   1.000
    O167    O    0.35345   0.00981   0.50028   1.000
    C168    C    0.64136   0.71157   0.94887   1.000
    C169    C    0.43320   0.02387   0.81861   1.000
    C170    C    0.43318   0.52389   0.81864   1.000
    C171    C    0.93317   0.02388   0.81864   1.000
    C172    C    0.93318   0.52389   0.81863   1.000
    C173    C    0.44922   0.12821   0.03346   1.000
    C174    C    0.44922   0.62822   0.03340   1.000
    C175    C    0.94920   0.12821   0.03344   1.000
    C176    C    0.94920   0.62822   0.03343   1.000
    C177    C    0.13690   0.03497   0.94263   1.000
    C178    C    0.13691   0.53498   0.94263   1.000
    C179    C    0.63689   0.03497   0.94263   1.000
    C180    C    0.63690   0.53498   0.94263   1.000
    C181    C    0.33043   0.16206   0.82820   1.000
    C182    C    0.33043   0.66207   0.82820   1.000
    C183    C    0.83042   0.16206   0.82820   1.000
    C184    C    0.83042   0.66207   0.82820   1.000
    C185    C    0.23806   0.00974   0.70769   1.000
    C186    C    0.23805   0.50975   0.70768   1.000
    C187    C    0.73805   0.00974   0.70770   1.000
    C188    C    0.73806   0.50975   0.70771   1.000
    C189    C    0.39141   0.03853   0.55051   1.000
    C190    C    0.39142   0.53851   0.55055   1.000
    C191    C    0.89140   0.03850   0.55056   1.000
    C192    C    0.89140   0.53851   0.55056   1.000
    C193    C    0.18312   0.22615   0.68131   1.000
    C194    C    0.18311   0.72615   0.68120   1.000
    C195    C    0.68309   0.22614   0.68129   1.000
    C196    C    0.68310   0.72615   0.68129   1.000
    C197    C    0.19915   0.12185   0.46660   1.000
    C198    C    0.19916   0.62186   0.46660   1.000
    C199    C    0.69914   0.12185   0.46661   1.000
    C200    C    0.69916   0.62186   0.46659   1.000
    C201    C    0.38687   0.21510   0.55730   1.000
    C202    C    0.38688   0.71511   0.55734   1.000
    C203    C    0.88686   0.21510   0.55734   1.000
    C204    C    0.88687   0.71511   0.55734   1.000
    O205    O    0.40516   0.40022   0.24595   1.000
    O206    O    0.40517   0.90022   0.24590   1.000
    O207    O    0.90515   0.40022   0.24595   1.000
    O208    O    0.90516   0.90023   0.24596   1.000
    O209    O    0.47551   0.40757   0.36448   1.000
    O210    O    0.47552   0.90757   0.36448   1.000
    O211    O    0.97550   0.40756   0.36449   1.000
    O212    O    0.97551   0.90757   0.36450   1.000
    O213    O    0.01041   0.31527   0.21398   1.000
    O214    O    0.01041   0.81527   0.21398   1.000
    O215    O    0.51040   0.31527   0.21399   1.000
    O216    O    0.51040   0.81528   0.21398   1.000
    O217    O    0.00007   0.22996   0.13860   1.000
    O218    O    0.00008   0.72997   0.13861   1.000
    O219    O    0.50005   0.22996   0.13860   1.000
    O220    O    0.50006   0.72997   0.13862   1.000
    O221    O    0.39653   0.75987   0.00048   1.000
    O222    O    0.89651   0.25986   0.00051   1.000
    O223    O    0.89651   0.75987   0.00052   1.000
    O224    O    0.04387   0.42490   0.19132   1.000
    O225    O    0.04387   0.92491   0.19133   1.000
    O226    O    0.54386   0.42490   0.19132   1.000
    O227    O    0.54387   0.92491   0.19132   1.000
    O228    O    0.05323   0.01040   0.11992   1.000
    O229    O    0.05324   0.51040   0.11991   1.000
    O230    O    0.55324   0.01039   0.11990   1.000
    O231    O    0.55324   0.51040   0.11991   1.000
    O232    O    0.01367   0.34277   0.02030   1.000
    O233    O    0.01368   0.84278   0.02029   1.000
    O234    O    0.51366   0.34277   0.02030   1.000
    O235    O    0.51367   0.84278   0.02030   1.000
    O236    O    0.05586   0.42546   0.96396   1.000
    O237    O    0.05586   0.92546   0.96395   1.000
    O238    O    0.55585   0.42545   0.96395   1.000
    O239    O    0.55586   0.92546   0.96390   1.000
    O240    O    0.42375   0.44822   0.06270   1.000
    O241    O    0.42375   0.94823   0.06270   1.000
    O242    O    0.92374   0.44822   0.06275   1.000
    O243    O    0.92374   0.94822   0.06275   1.000
    O244    O    0.31418   0.44467   0.09784   1.000
    O245    O    0.31419   0.94469   0.09784   1.000
    O246    O    0.81417   0.44467   0.09784   1.000
    O247    O    0.81418   0.94468   0.09784   1.000
    O248    O    0.15518   0.34987   0.25413   1.000
    O249    O    0.15518   0.84988   0.25413   1.000
    O250    O    0.65517   0.34987   0.25413   1.000
    O251    O    0.65517   0.84987   0.25413   1.000
    O252    O    0.22555   0.34249   0.13555   1.000
    O253    O    0.22556   0.84250   0.13555   1.000
    O254    O    0.72554   0.34250   0.13555   1.000
    O255    O    0.72555   0.84250   0.13555   1.000
    O256    O    0.26014   0.43476   0.28596   1.000
    O257    O    0.26016   0.93477   0.28597   1.000
    O258    O    0.76014   0.43476   0.28597   1.000
    O259    O    0.76014   0.93477   0.28597   1.000
    O260    O    0.24999   0.02005   0.36144   1.000
    O261    O    0.24999   0.52006   0.36140   1.000
    O262    O    0.74997   0.02005   0.36145   1.000
    O263    O    0.74999   0.52006   0.36145   1.000
    O264    O    0.12551   0.42352   0.38914   1.000
    O265    O    0.12551   0.92353   0.38915   1.000
    O266    O    0.62550   0.42351   0.38910   1.000
    O267    O    0.62551   0.92354   0.38910   1.000
    O268    O    0.14654   0.49020   0.49965   1.000
    O269    O    0.14654   0.99021   0.49966   1.000
    O270    O    0.64653   0.49021   0.49966   1.000
    O271    O    0.64653   0.99021   0.49965   1.000
    O272    O    0.29390   0.32512   0.30869   1.000
    O273    O    0.29390   0.82513   0.30869   1.000
    O274    O    0.79389   0.32512   0.30869   1.000
    O275    O    0.79389   0.82513   0.30869   1.000
    O276    O    0.30329   0.23959   0.38003   1.000
    O277    O    0.30329   0.73959   0.38003   1.000
    O278    O    0.80328   0.23958   0.38003   1.000
    O279    O    0.80329   0.73959   0.38004   1.000
    O280    O    0.26372   0.40723   0.47962   1.000
    O281    O    0.26373   0.90724   0.47960   1.000
    O282    O    0.76371   0.40723   0.47963   1.000
    O283    O    0.76372   0.90724   0.47963   1.000
    O284    O    0.30584   0.32450   0.53602   1.000
    O285    O    0.30584   0.82451   0.53602   1.000
    O286    O    0.80583   0.32450   0.53603   1.000
    O287    O    0.80583   0.82451   0.53600   1.000
    O288    O    0.17375   0.30174   0.43721   1.000
    O289    O    0.17375   0.80174   0.43721   1.000
    O290    O    0.67374   0.30174   0.43721   1.000
    O291    O    0.67374   0.80175   0.43721   1.000
    O292    O    0.06419   0.30529   0.40213   1.000
    O293    O    0.06419   0.80529   0.40210   1.000
    O294    O    0.56418   0.30529   0.40213   1.000
    O295    O    0.56418   0.80530   0.40213   1.000
    O296    O    0.09483   0.09980   0.75401   1.000
    O297    O    0.09483   0.59980   0.75400   1.000
    O298    O    0.59482   0.09980   0.75401   1.000
    O299    O    0.59482   0.59981   0.75401   1.000
    O300    O    0.02448   0.09245   0.63547   1.000
    O301    O    0.02448   0.59246   0.63546   1.000
    O302    O    0.52447   0.09245   0.63547   1.000
    O303    O    0.52448   0.59246   0.63547   1.000
    O304    O    0.48958   0.18475   0.78598   1.000
    O305    O    0.48959   0.68475   0.78598   1.000
    O306    O    0.98957   0.18475   0.78598   1.000
    O307    O    0.98957   0.68475   0.78597   1.000
    O308    O    0.49992   0.27005   0.86136   1.000
    O309    O    0.49993   0.77006   0.86134   1.000
    O310    O    0.99990   0.27005   0.86135   1.000
    O311    O    0.99990   0.77006   0.86134   1.000
    O312    O    0.12435   0.17381   0.88832   1.000
    O313    O    0.12435   0.67384   0.88825   1.000
    O314    O    0.62434   0.17380   0.88835   1.000
    O315    O    0.62435   0.67381   0.88834   1.000
    O316    O    0.10347   0.24015   0.99946   1.000
    O317    O    0.10347   0.74016   0.99944   1.000
    O318    O    0.60345   0.24015   0.99948   1.000
    O319    O    0.60346   0.74016   0.99947   1.000
    O320    O    0.45612   0.07511   0.80863   1.000
    O321    O    0.45612   0.57512   0.80860   1.000
    O322    O    0.95611   0.07511   0.80864   1.000
    O323    O    0.95611   0.57512   0.80863   1.000
    O324    O    0.44675   0.48962   0.88004   1.000
    O325    O    0.44677   0.98962   0.88003   1.000
    O326    O    0.94675   0.48961   0.88004   1.000
    O327    O    0.94674   0.98963   0.88005   1.000
    O328    O    0.48632   0.15724   0.97967   1.000
    O329    O    0.48632   0.65725   0.97966   1.000
    O330    O    0.98631   0.15724   0.97966   1.000
    O331    O    0.98631   0.65725   0.97965   1.000
    O332    O    0.44413   0.07455   0.03601   1.000
    O333    O    0.44414   0.57456   0.03600   1.000
    O334    O    0.94412   0.07455   0.03600   1.000
    O335    O    0.94412   0.57456   0.03599   1.000
    O336    O    0.07624   0.05179   0.93720   1.000
    O337    O    0.07625   0.55180   0.93720   1.000
    O338    O    0.57623   0.05179   0.93720   1.000
    O339    O    0.57624   0.55180   0.93720   1.000
    O340    O    0.18581   0.05533   0.90210   1.000
    O341    O    0.18581   0.55535   0.90210   1.000
    O342    O    0.68580   0.05533   0.90210   1.000
    O343    O    0.68581   0.55534   0.90212   1.000
    O344    O    0.34481   0.15014   0.74583   1.000
    O345    O    0.34482   0.65015   0.74583   1.000
    O346    O    0.84480   0.15014   0.74583   1.000
    O347    O    0.84480   0.65015   0.74583   1.000
    O348    O    0.27444   0.15751   0.86440   1.000
    O349    O    0.27444   0.65752   0.86440   1.000
    O350    O    0.77443   0.15752   0.86441   1.000
    O351    O    0.77443   0.65752   0.86441   1.000
    O352    O    0.23984   0.06525   0.71398   1.000
    O353    O    0.23984   0.56526   0.71398   1.000
    O354    O    0.73983   0.06525   0.71398   1.000
    O355    O    0.73983   0.56526   0.71398   1.000
    O356    O    0.24999   0.47996   0.63848   1.000
    O357    O    0.35346   0.50982   0.50029   1.000
    O358    O    0.85344   0.00980   0.50030   1.000
    O359    O    0.85345   0.50981   0.50030   1.000
    O360    O    0.20610   0.17489   0.69127   1.000
    O361    O    0.20610   0.67490   0.69127   1.000
    O362    O    0.70608   0.17489   0.69127   1.000
    O363    O    0.70609   0.67490   0.69127   1.000
    O364    O    0.19671   0.26043   0.61993   1.000
    O365    O    0.19670   0.76043   0.61992   1.000
    O366    O    0.69668   0.26042   0.61992   1.000
    O367    O    0.69669   0.76043   0.61993   1.000
    O368    O    0.23627   0.09278   0.52032   1.000
    O369    O    0.23627   0.59279   0.52032   1.000
    O370    O    0.73626   0.09278   0.52030   1.000
    O371    O    0.73626   0.59279   0.52032   1.000
    O372    O    0.19415   0.17551   0.46393   1.000
    O373    O    0.19416   0.67552   0.46393   1.000
    O374    O    0.69414   0.17551   0.46394   1.000
    O375    O    0.69415   0.67552   0.46393   1.000
    O376    O    0.32624   0.19828   0.56275   1.000
    O377    O    0.32625   0.69829   0.56275   1.000
    O378    O    0.82623   0.19827   0.56275   1.000
    O379    O    0.82624   0.69828   0.56275   1.000
    O380    O    0.43580   0.19473   0.59783   1.000
    O381    O    0.43581   0.69473   0.59783   1.000
    O382    O    0.93579   0.19472   0.59783   1.000
    O383    O    0.93580   0.69473   0.59783   1.000
loop_
    _geom_bond_atom_site_label_1
    _geom_bond_atom_site_label_2
    _geom_bond_distance
    _geom_bond_site_symmetry_2
    _ccdc_geom_bond_type
    O221   C114      1.25319      .   S
    O88    C113      1.25322      .   S
    O222   C115      1.25313      .   S
    O223   C116      1.25319      .   S
    H23    C127      1.10216      .   S
    H21    C125      1.10225      .   S
    H22    C128      1.10196  1_545   S
    H20    C126      1.10159  1_545   S
    O233   C122      1.29410  1_554   S
    O232   C121      1.29425  1_554   S
    O234   C123      1.29410  1_554   S
    O235   C124      1.29412  1_554   S
    C174   O333      1.24783      .   S
    C174   H69       1.10310      .   S
    C174   O329      1.29369  1_554   S
    C176   O335      1.24779      .   S
    C176   H71       1.10262      .   S
    C176   O331      1.29417  1_554   S
    C175   O334      1.24780      .   S
    C175   H70       1.10266      .   S
    C175   O330      1.29413  1_554   S
    C173   O332      1.24780      .   S
    C173   H68       1.10266      .   S
    C173   O328      1.29410  1_554   S
    H9     C114      1.10582      .   S
    H8     C113      1.10585      .   S
    H10    C115      1.10582      .   S
    H11    C116      1.10584      .   S
    C114   O85       1.28921      .   S
    C113   O84       1.28918      .   S
    C115   O86       1.28930      .   S
    C116   O87       1.28926      .   S
    C126   O241      1.28935      .   S
    C126   O245      1.25481      .   S
    C127   O242      1.28940      .   S
    C127   O246      1.25461      .   S
    C128   O243      1.28937      .   S
    C128   O247      1.25452      .   S
    C125   O240      1.28931      .   S
    C125   O244      1.25455      .   S
    O230   C120      1.25123  1_545   S
    O231   C119      1.25133      .   S
    O229   C117      1.25142      .   S
    O228   C118      1.25127  1_545   S
    H24    C129      1.10332      .   S
    H27    C132      1.10290      .   S
    H25    C130      1.10288      .   S
    H26    C131      1.10332      .   S
    O255   C132      1.25817      .   S
    O254   C131      1.25854      .   S
    O253   C130      1.25815      .   S
    O252   C129      1.25817      .   S
    O217   C109      1.25096      .   S
    O219   C111      1.25120      .   S
    O218   C110      1.25073      .   S
    O220   C112      1.25073      .   S
    C132   O251      1.28407      .   S
    C130   O249      1.28406      .   S
    C129   O248      1.28407      .   S
    C131   O250      1.28323      .   S
    C120   O227      1.28513      .   S
    C120   H15       1.10738      .   S
    C119   O226      1.28513      .   S
    C119   H14       1.10750      .   S
    C117   O224      1.28511      .   S
    C117   H12       1.10722      .   S
    C118   O225      1.28512      .   S
    C118   H13       1.10736      .   S
    C109   O213      1.28707      .   S
    C109   H4        1.10571      .   S
    C112   O216      1.28709      .   S
    C112   H7        1.10565      .   S
    C110   O214      1.28708      .   S
    C110   H5        1.10574      .   S
    C111   O215      1.28708      .   S
    C111   H6        1.10565      .   S
    H29    C133      1.10569      .   S
    H30    C136      1.10539  1_545   S
    H28    C134      1.10543  1_545   S
    H31    C135      1.10572      .   S
    O206   C106      1.28382      .   S
    O205   C105      1.28326      .   S
    O207   C107      1.28322      .   S
    O208   C108      1.28320      .   S
    H37    C142      1.10698      .   S
    H38    C143      1.10738      .   S
    H36    C141      1.10739      .   S
    H39    C144      1.10735      .   S
    O256   C133      1.28708      .   S
    O259   C136      1.28704      .   S
    O258   C135      1.28708      .   S
    O257   C134      1.28706      .   S
    C133   O261      1.25031      .   S
    C136   O262      1.25068  1_565   S
    C134   O260      1.25052  1_565   S
    C135   O263      1.25069      .   S
    O272   C141      1.28523      .   S
    O273   C142      1.28513      .   S
    O274   C143      1.28523      .   S
    O275   C144      1.28524      .   S
    C142   O277      1.25189      .   S
    C141   O276      1.25133      .   S
    C143   O278      1.25136      .   S
    C144   O279      1.25141      .   S
    C106   O210      1.25857      .   S
    C106   H1        1.10340      .   S
    C107   O211      1.25859      .   S
    C107   H2        1.10337      .   S
    C105   O209      1.25853      .   S
    C105   H0        1.10336      .   S
    C108   O212      1.25859      .   S
    C108   H3        1.10329      .   S
    O267   C140      1.28929      .   S
    O266   C139      1.28960      .   S
    O264   C137      1.28905      .   S
    O265   C138      1.28907      .   S
    O293   C150      1.25473      .   S
    O294   C151      1.25459      .   S
    O295   C152      1.25457      .   S
    O292   C149      1.25455      .   S
    H100   C200      1.10270      .   S
    H97    C197      1.10263      .   S
    H98    C198      1.10267      .   S
    H99    C199      1.10269      .   S
    O288   C149      1.28940      .   S
    O289   C150      1.28937      .   S
    O290   C151      1.28940      .   S
    O291   C152      1.28940      .   S
    C150   H45       1.10223      .   S
    C149   H44       1.10217      .   S
    C151   H46       1.10212      .   S
    C152   H47       1.10212      .   S
    C140   H35       1.10586      .   S
    C140   O271      1.25318      .   S
    C139   H34       1.10587      .   S
    C139   O270      1.25318      .   S
    C138   H33       1.10587      .   S
    C138   O269      1.25318      .   S
    C137   H32       1.10587      .   S
    C137   O268      1.25313      .   S
    O375   C200      1.24775      .   S
    O372   C197      1.24775      .   S
    O373   C198      1.24775      .   S
    O374   C199      1.24774      .   S
    C200   O371      1.29378      .   S
    C197   O368      1.29382      .   S
    C198   O369      1.29383      .   S
    C199   O370      1.29358      .   S
    O281   C146      1.29403      .   S
    O280   C145      1.29386      .   S
    O282   C147      1.29385      .   S
    O283   C148      1.29386      .   S
    O167   C189      1.25313      .   S
    O357   C190      1.25314      .   S
    O359   C192      1.25314      .   S
    O358   C191      1.25313      .   S
    H103   C203      1.10226      .   S
    H101   C201      1.10183      .   S
    H102   C202      1.10221      .   S
    H104   C204      1.10214      .   S
    C146   O285      1.24775      .   S
    C146   H41       1.10269      .   S
    C145   O284      1.24775      .   S
    C145   H40       1.10268      .   S
    C147   O286      1.24777      .   S
    C147   H42       1.10267      .   S
    C148   O287      1.24775      .   S
    C148   H43       1.10267      .   S
    H89    C189      1.10589      .   S
    H90    C190      1.10587      .   S
    H91    C191      1.10587      .   S
    H92    C192      1.10586      .   S
    C189   O163      1.28837      .   S
    C190   O164      1.28909      .   S
    C191   O165      1.28910      .   S
    C192   O166      1.28900      .   S
    C201   O376      1.28943      .   S
    C201   O380      1.25482      .   S
    C204   O379      1.28940      .   S
    C204   O383      1.25459      .   S
    C203   O378      1.28940      .   S
    C203   O382      1.25455      .   S
    C202   O377      1.28940      .   S
    C202   O381      1.25457      .   S
    O365   C194      1.25037      .   S
    O366   C195      1.25133      .   S
    O364   C193      1.25138      .   S
    O367   C196      1.25126      .   S
    H50    C155      1.10365      .   S
    H49    C154      1.10336      .   S
    H51    C156      1.10336      .   S
    H48    C153      1.10285      .   S
    O301   C154      1.25859      .   S
    O303   C156      1.25858      .   S
    O300   C153      1.25821      .   S
    O302   C155      1.25858      .   S
    O356   C186      1.25073      .   S
    O162   C187      1.25059  1_565   S
    O160   C185      1.25050  1_565   S
    O161   C188      1.25084      .   S
    C153   O296      1.28405      .   S
    C154   O297      1.28321      .   S
    C156   O299      1.28321      .   S
    C155   O298      1.28322      .   S
    C194   O361      1.28542      .   S
    C194   H94       1.10828      .   S
    C196   O363      1.28523      .   S
    C196   H96       1.10741      .   S
    C195   O362      1.28524      .   S
    C195   H95       1.10749      .   S
    C193   O360      1.28522      .   S
    C193   H93       1.10744      .   S
    C186   O353      1.28706      .   S
    C186   H80       1.10575      .   S
    C185   O352      1.28706      .   S
    C185   H81       1.10544  1_545   S
    C187   O354      1.28707      .   S
    C187   H83       1.10545  1_545   S
    C188   O355      1.28707      .   S
    C188   H82       1.10561      .   S
    H59    C52       1.11453      .   S
    H57    C158      1.10563      .   S
    H58    C159      1.10567      .   S
    H56    C157      1.10476      .   S
    O344   C181      1.28322      .   S
    O345   C182      1.28323      .   S
    O346   C183      1.28320      .   S
    O347   C184      1.28323      .   S
    H64    C169      1.10745      .   S
    H67    C172      1.10745      .   S
    H65    C170      1.10747      .   S
    H66    C171      1.10742      .   S
    O307   C52       1.28709      .   S
    O304   C157      1.28703      .   S
    O305   C158      1.28709      .   S
    O306   C159      1.28708      .   S
    C157   O308      1.25169      .   S
    C52    O311      1.25074      .   S
    C158   O309      1.25072      .   S
    C159   O310      1.25069      .   S
    O321   C170      1.28520      .   S
    O320   C169      1.28511      .   S
    O323   C172      1.28512      .   S
    O322   C171      1.28510      .   S
    C169   O325      1.25124  1_545   S
    C172   O326      1.25142      .   S
    C170   O324      1.25135      .   S
    C171   O327      1.25121  1_545   S
    C181   O348      1.25849      .   S
    C181   H76       1.10331      .   S
    C182   O349      1.25849      .   S
    C182   H77       1.10330      .   S
    C183   O350      1.25855      .   S
    C183   H78       1.10332      .   S
    C184   O351      1.25852      .   S
    C184   H79       1.10333      .   S
    O313   C54       1.28927      .   S
    O312   C53       1.28887      .   S
    O315   C168      1.28923      .   S
    O314   C55       1.28917      .   S
    O340   C177      1.25469      .   S
    O341   C178      1.25468      .   S
    O342   C179      1.25468      .   S
    O343   C180      1.25455      .   S
    H17    C122      1.10269      .   S
    H18    C123      1.10264      .   S
    H16    C121      1.10249      .   S
    H19    C124      1.10273      .   S
    O339   C180      1.28937      .   S
    O338   C179      1.28937      .   S
    O337   C178      1.28938      .   S
    O336   C177      1.28938      .   S
    C177   H73       1.10194  1_545   S
    C178   H72       1.10227      .   S
    C179   H75       1.10142  1_545   S
    C180   H74       1.10222      .   S
    C53    H60       1.10587      .   S
    C53    O316      1.25351      .   S
    C54    H61       1.10582      .   S
    C54    O317      1.25322      .   S
    C168   H63       1.10583      .   S
    C168   O319      1.25313      .   S
    C55    H62       1.10585      .   S
    C55    O318      1.25320      .   S
    O239   C124      1.24784      .   S
    O237   C122      1.24778      .   S
    O238   C123      1.24780      .   S
    O236   C121      1.24779      .   S
