# CIF file generated by openbabel 2.4.90, see http://openbabel.sf.net
data_I
_chemical_name_common ''
_cell_length_a 7.777
_cell_length_b 10.178
_cell_length_c 13.43
_cell_angle_alpha 68.03
_cell_angle_beta 85.139
_cell_angle_gamma 75.683
_space_group_name_H-M_alt 'P 1'
_space_group_name_Hall 'P 1'
loop_
    _symmetry_equiv_pos_as_xyz
    x,y,z
loop_
    _atom_site_label
    _atom_site_type_symbol
    _atom_site_fract_x
    _atom_site_fract_y
    _atom_site_fract_z
    _atom_site_occupancy
    H0      H    0.15143   0.86503   0.44868   1.000
    H1      H    0.22053   0.74212   0.17290   1.000
    H2      H    0.18389   0.18878   0.13583   1.000
    H3      H    0.39657   0.78986   0.04129   1.000
    H4      H    0.44452   0.84393   0.84696   1.000
    H5      H    0.15597   0.28681   0.77798   1.000
    H6      H    0.09489   0.23181   0.97153   1.000
    H7      H    0.84855   0.13498   0.55131   1.000
    H8      H    0.77945   0.25791   0.82709   1.000
    H9      H    0.81609   0.81124   0.86417   1.000
    H10     H    0.60343   0.21018   0.95871   1.000
    H11     H    0.55548   0.15610   0.15304   1.000
    H12     H    0.84401   0.71323   0.22202   1.000
    H13     H    0.90510   0.76822   0.02847   1.000
    C14     C    0.16599   0.03810   0.29607   1.000
    C15     C    0.16665   0.89419   0.36233   1.000
    C16     C    0.18461   0.78869   0.31657   1.000
    C17     C    0.20723   0.82695   0.20567   1.000
    C18     C    0.20860   0.97034   0.13794   1.000
    C19     C    0.18353   0.07601   0.18474   1.000
    C20     C    0.23967   0.00601   0.02147   1.000
    C21     C    0.33875   0.89807   0.98402   1.000
    C22     C    0.36853   0.92824   0.87520   1.000
    C23     C    0.30304   0.06853   0.79988   1.000
    C24     C    0.20689   0.17777   0.83623   1.000
    C25     C    0.17466   0.14645   0.94534   1.000
    C26     C    0.83399   0.96192   0.70394   1.000
    C27     C    0.83332   0.10583   0.63767   1.000
    C28     C    0.81536   0.21133   0.68342   1.000
    C29     C    0.79274   0.17307   0.79432   1.000
    C30     C    0.79137   0.02969   0.86206   1.000
    C31     C    0.81644   0.92401   0.81526   1.000
    C32     C    0.76030   0.99401   0.97852   1.000
    C33     C    0.66124   0.10195   0.01598   1.000
    C34     C    0.63146   0.07179   0.12480   1.000
    C35     C    0.69694   0.93151   0.20012   1.000
    C36     C    0.79310   0.82226   0.16377   1.000
    C37     C    0.82532   0.85358   0.05466   1.000
loop_
    _geom_bond_atom_site_label_1
    _geom_bond_atom_site_label_2
    _geom_bond_distance
    _geom_bond_site_symmetry_2
    _ccdc_geom_bond_type
    C33    C34       1.38774      .   S
    C33    H10       1.08937  1_554   S
    C33    C32       1.40814  1_544   S
    C20    C18       1.48021  1_545   S
    C20    C25       1.40740  1_554   S
    C20    C21       1.40814  1_544   S
    H13    C37       1.09016      .   S
    H3     C21       1.08936  1_554   S
    C37    C36       1.39259      .   S
    C37    C32       1.40738  1_554   S
    C34    H11       1.08809      .   S
    C34    C35       1.40288  1_545   S
    H2     C19       1.08901      .   S
    C18    C19       1.40402  1_565   S
    C18    C17       1.40360      .   S
    C36    C35       1.40253      .   S
    C36    H12       1.08901      .   S
    H1     C17       1.08739      .   S
    C19    C14       1.40093      .   S
    C17    C16       1.39869      .   S
    C14    C15       1.39966  1_545   S
    C16    C15       1.39830      .   S
    C15    H0        1.08800      .   S
    H7     C27       1.08799      .   S
    C27    C28       1.39831      .   S
    C27    C26       1.39973  1_545   S
    C28    C29       1.39868      .   S
    C26    C31       1.40092      .   S
    H5     C24       1.08902      .   S
    C29    H8        1.08741      .   S
    C29    C30       1.40357      .   S
    C23    C24       1.40251      .   S
    C23    C22       1.40298  1_545   S
    C31    C30       1.40401  1_565   S
    C31    H9        1.08902      .   S
    C24    C25       1.39260      .   S
    H4     C22       1.08810      .   S
    C30    C32       1.48023  1_545   S
    C22    C21       1.38774      .   S
    C25    H6        1.09015      .   S
