# CIF file generated by openbabel 2.4.90, see http://openbabel.sf.net
data_I
_chemical_name_common ''
_cell_length_a 14.017
_cell_length_b 15.199
_cell_length_c 15.249
_cell_angle_alpha 85.04
_cell_angle_beta 87.603
_cell_angle_gamma 83.928
_space_group_name_H-M_alt 'P 1'
_space_group_name_Hall 'P 1'
loop_
    _symmetry_equiv_pos_as_xyz
    x,y,z
loop_
    _atom_site_label
    _atom_site_type_symbol
    _atom_site_fract_x
    _atom_site_fract_y
    _atom_site_fract_z
    _atom_site_occupancy
    C0      C    0.21851   0.89403   0.98422   1.000
    C1      C    0.20764   0.88709   0.33003   1.000
    C2      C    0.21673   0.71920   0.16307   1.000
    C3      C    0.20484   0.06418   0.15393   1.000
    C4      C    0.78163   0.10593   0.01578   1.000
    C5      C    0.79240   0.11289   0.66998   1.000
    C6      C    0.78331   0.28077   0.83693   1.000
    C7      C    0.79522   0.93579   0.84607   1.000
