# CIF file generated by openbabel 2.4.90, see http://openbabel.sf.net
data_I
_chemical_name_common ''
_cell_length_a 13.464
_cell_length_b 14.949
_cell_length_c 14.953
_cell_angle_alpha 89.953
_cell_angle_beta 89.982
_cell_angle_gamma 89.964
_space_group_name_H-M_alt 'P 1'
_space_group_name_Hall 'P 1'
loop_
    _symmetry_equiv_pos_as_xyz
    x,y,z
loop_
    _atom_site_label
    _atom_site_type_symbol
    _atom_site_fract_x
    _atom_site_fract_y
    _atom_site_fract_z
    _atom_site_occupancy
    N0      N    0.74998   0.94732   0.05291   1.000
    N1      N    0.99998   0.44693   0.44696   1.000
    N2      N    0.93926   0.04311   0.64790   1.000
    N3      N    0.24977   0.05286   0.94727   1.000
    N4      N    0.06102   0.64785   0.04323   1.000
    N5      N    0.56087   0.35232   0.95633   1.000
    N6      N    0.31116   0.45628   0.14791   1.000
    N7      N    0.81108   0.54419   0.85208   1.000
    N8      N    0.68915   0.14788   0.45624   1.000
    N9      N    0.18900   0.85205   0.54379   1.000
    N10     N    0.50058   0.55318   0.55330   1.000
    N11     N    0.43941   0.95643   0.35230   1.000
    Zr12    Zr   0.00005   0.22792   0.22786   1.000
    O13     O    0.16090   0.13006   0.27844   1.000
    O14     O    0.90787   0.20404   0.30174   1.000
    O15     O    0.00003   0.30398   0.30394   1.000
    O16     O    0.09231   0.30181   0.20400   1.000
    O17     O    0.83925   0.27850   0.13000   1.000
    Zr18    Zr   0.75007   0.72796   0.27214   1.000
    O19     O    0.91080   0.77844   0.37004   1.000
    O20     O    0.75003   0.80414   0.19601   1.000
    O21     O    0.84227   0.70407   0.19814   1.000
    O22     O    0.65798   0.80188   0.29607   1.000
    O23     O    0.58936   0.63005   0.22163   1.000
    Zr24    Zr   0.50008   0.77232   0.77220   1.000
    O25     O    0.59229   0.69854   0.79604   1.000
    O26     O    0.40782   0.79614   0.69829   1.000
    O27     O    0.50023   0.69624   0.69617   1.000
    O28     O    0.66088   0.87003   0.72165   1.000
    O29     O    0.33934   0.72170   0.87001   1.000
    Zr30    Zr   0.25004   0.27217   0.72797   1.000
    O31     O    0.08933   0.37022   0.77846   1.000
    O32     O    0.15790   0.19811   0.70412   1.000
    O33     O    0.24997   0.19602   0.80415   1.000
    O34     O    0.34221   0.29608   0.80188   1.000
    O35     O    0.41081   0.22163   0.63004   1.000
loop_
    _geom_bond_atom_site_label_1
    _geom_bond_atom_site_label_2
    _geom_bond_distance
    _geom_bond_site_symmetry_2
    _ccdc_geom_bond_type
    Zr12   O13       2.71985      .   S
    N11    O13       4.69090  1_565   S
    Zr12   O14       1.69916  1_455   S
    N8     O14       3.83536      .   S
    Zr12   O15       1.60903      .   S
    N1     O15       3.02451  1_655   S
    Zr12   O16       1.70042      .   S
    N6     O16       3.83687      .   S
    Zr12   O17       2.71992  1_455   S
    N5     O17       4.69115  1_556   S
    Zr18   O19       2.72049      .   S
    N9     O19       4.69126  1_455   S
    Zr18   O20       1.60946      .   S
    N0     O20       3.02533      .   S
    Zr18   O21       1.70053      .   S
    N4     O21       3.83957  1_455   S
    Zr18   O22       1.69867      .   S
    N11    O22       3.83367      .   S
    Zr18   O23       2.72061      .   S
    N6     O23       4.69176      .   S
    Zr24   O25       1.69786      .   S
    N7     O25       3.83322      .   S
    Zr24   O26       1.70025      .   S
    N9     O26       3.83591      .   S
    Zr24   O27       1.60868      .   S
    N10    O27       3.02414      .   S
    Zr24   O28       2.71904      .   S
    N2     O28       4.68658  1_545   S
    Zr24   O29       2.71913      .   S
    N4     O29       4.68669  1_554   S
    Zr30   O31       2.71973      .   S
    N7     O31       4.69047  1_655   S
    Zr30   O32       1.70137      .   S
    N2     O32       3.84120  1_655   S
    Zr30   O33       1.60978      .   S
    N3     O33       3.02529      .   S
    Zr30   O34       1.70034      .   S
    N5     O34       3.83647      .   S
    Zr30   O35       2.72000      .   S
    N8     O35       4.69122      .   S
