# CIF file generated by openbabel 2.4.90, see http://openbabel.sf.net
data_I
_chemical_name_common ''
_cell_length_a 12.465
_cell_length_b 15.968
_cell_length_c 15.972
_cell_angle_alpha 90.002
_cell_angle_beta 89.977
_cell_angle_gamma 90.007
_space_group_name_H-M_alt 'P 1'
_space_group_name_Hall 'P 1'
loop_
    _symmetry_equiv_pos_as_xyz
    x,y,z
loop_
    _atom_site_label
    _atom_site_type_symbol
    _atom_site_fract_x
    _atom_site_fract_y
    _atom_site_fract_z
    _atom_site_occupancy
    Zr0     Zr   0.62444   0.52168   0.00248   1.000
    Zr1     Zr   0.12443   0.47840   0.99748   1.000
    Zr2     Zr   0.87448   0.49748   0.02164   1.000
    Zr3     Zr   0.37440   0.50248   0.97836   1.000
    Zr4     Zr   0.62560   0.97841   0.50248   1.000
    Zr5     Zr   0.12557   0.02166   0.49740   1.000
    Zr6     Zr   0.37562   0.00246   0.52164   1.000
    Zr7     Zr   0.87559   0.99751   0.47830   1.000
    Zr8     Zr   0.74937   0.44199   0.92371   1.000
    Zr9     Zr   0.24929   0.55805   0.07632   1.000
    Zr10    Zr   0.99939   0.57636   0.94190   1.000
    Zr11    Zr   0.49929   0.42371   0.05798   1.000
    Zr12    Zr   0.50074   0.05804   0.42368   1.000
    Zr13    Zr   0.00064   0.94201   0.57628   1.000
    Zr14    Zr   0.25070   0.92371   0.44201   1.000
    Zr15    Zr   0.75070   0.07635   0.55802   1.000
    O16     O    0.68690   0.48184   0.96309   1.000
    O17     O    0.93694   0.53692   0.98177   1.000
    O18     O    0.43684   0.46309   0.01817   1.000
    O19     O    0.18686   0.51822   0.03690   1.000
    O20     O    0.56317   0.01822   0.46308   1.000
    O21     O    0.31316   0.96308   0.48182   1.000
    O22     O    0.81314   0.03693   0.51816   1.000
    O23     O    0.06311   0.98184   0.53684   1.000
    N24     N    0.23831   0.77250   0.77191   1.000
    N25     N    0.51172   0.27248   0.72808   1.000
    N26     N    0.26172   0.22812   0.22741   1.000
    N27     N    0.76173   0.77193   0.77244   1.000
    N28     N    0.98832   0.27193   0.72749   1.000
    N29     N    0.48831   0.72815   0.27248   1.000
    N30     N    0.01170   0.72750   0.27187   1.000
    N31     N    0.73833   0.22749   0.22814   1.000
    C32     C    0.24946   0.36928   0.84617   1.000
    O33     O    0.35753   0.34702   0.81643   1.000
    O34     O    0.16265   0.32472   0.79614   1.000
    O35     O    0.33675   0.32505   0.79624   1.000
    O36     O    0.20419   0.40896   0.89781   1.000
    O37     O    0.29457   0.41591   0.89222   1.000
    O38     O    0.14165   0.34472   0.81805   1.000
    C39     C    0.74951   0.63075   0.15377   1.000
    O40     O    0.83678   0.67496   0.20371   1.000
    O41     O    0.70423   0.59108   0.10215   1.000
    O42     O    0.66268   0.67533   0.20381   1.000
    O43     O    0.79463   0.58410   0.10773   1.000
    O44     O    0.85757   0.65299   0.18352   1.000
    O45     O    0.64169   0.65533   0.18191   1.000
    C46     C    0.49947   0.65381   0.86925   1.000
    O47     O    0.41265   0.70385   0.82469   1.000
    O48     O    0.39165   0.68193   0.84470   1.000
    O49     O    0.60754   0.68357   0.84698   1.000
    O50     O    0.54458   0.60778   0.91589   1.000
    O51     O    0.58677   0.70375   0.82502   1.000
    O52     O    0.45419   0.60217   0.90892   1.000
    C53     C    0.99952   0.34621   0.13073   1.000
    O54     O    0.08679   0.29628   0.17492   1.000
    O55     O    0.95425   0.39782   0.09105   1.000
    O56     O    0.04462   0.39227   0.08410   1.000
    O57     O    0.10757   0.31647   0.15285   1.000
    O58     O    0.89170   0.31807   0.15532   1.000
    O59     O    0.91269   0.29616   0.17531   1.000
    C60     C    0.50058   0.86929   0.65367   1.000
    O61     O    0.39250   0.84703   0.68348   1.000
    O62     O    0.58739   0.82473   0.70374   1.000
    O63     O    0.41328   0.82506   0.70367   1.000
    O64     O    0.60839   0.84472   0.68184   1.000
    O65     O    0.45546   0.91590   0.60768   1.000
    O66     O    0.54585   0.90898   0.60195   1.000
    C67     C    0.00053   0.13073   0.34620   1.000
    O68     O    0.08736   0.17531   0.29614   1.000
    O69     O    0.10834   0.15531   0.31804   1.000
    O70     O    0.89247   0.15297   0.31647   1.000
    O71     O    0.91326   0.17495   0.29628   1.000
    O72     O    0.04579   0.09107   0.39781   1.000
    O73     O    0.95541   0.08410   0.39223   1.000
    C74     C    0.75054   0.84623   0.36924   1.000
    O75     O    0.64247   0.81649   0.34699   1.000
    O76     O    0.66325   0.79630   0.32503   1.000
    O77     O    0.79581   0.89786   0.40890   1.000
    O78     O    0.70542   0.89228   0.41588   1.000
    O79     O    0.83736   0.79618   0.32468   1.000
    O80     O    0.85835   0.81809   0.34467   1.000
    C81     C    0.25055   0.15380   0.63071   1.000
    O82     O    0.33737   0.20383   0.67528   1.000
    O83     O    0.16326   0.20374   0.67493   1.000
    O84     O    0.35836   0.18191   0.65528   1.000
    O85     O    0.14249   0.18355   0.65296   1.000
    O86     O    0.29583   0.10216   0.59103   1.000
    O87     O    0.20543   0.10775   0.58406   1.000
loop_
    _geom_bond_atom_site_label_1
    _geom_bond_atom_site_label_2
    _geom_bond_distance
    _geom_bond_site_symmetry_2
    _ccdc_geom_bond_type
    Zr0    O16       1.18597  1_554   S
    Zr8    O16       1.18597      .   S
    Zr2    O17       1.18645  1_554   S
    Zr10   O17       1.18645      .   S
    Zr11   O18       1.18587      .   S
    Zr3    O18       1.18587  1_556   S
    Zr9    O19       1.18603      .   S
    Zr1    O19       1.18603  1_556   S
    Zr12   O20       1.18590      .   S
    Zr4    O20       1.18590  1_565   S
    Zr14   O21       1.18579      .   S
    Zr6    O21       1.18579  1_545   S
    Zr7    O22       1.18618  1_565   S
    Zr15   O22       1.18618      .   S
    Zr5    O23       1.18619  1_545   S
    Zr13   O23       1.18619      .   S
    C32    O33       1.47189      .   S
    N25    O33       2.66456      .   S
    C32    O34       1.52194      .   S
    N28    O34       2.57601  1_655   S
    C32    O35       1.52264      .   S
    N25    O35       2.57770      .   S
    C32    O36       1.18305      .   S
    Zr1    O36       2.17974      .   S
    C32    O37       1.18821      .   S
    Zr3    O37       2.18954      .   S
    C32    O38       1.47030      .   S
    N28    O38       2.66409  1_655   S
    C39    O40       1.52266      .   S
    N30    O40       2.57766  1_455   S
    C39    O41       1.18316      .   S
    Zr0    O41       2.18002      .   S
    C39    O42       1.52199      .   S
    N29    O42       2.57616      .   S
    C39    O43       1.18816      .   S
    Zr2    O43       2.18944      .   S
    C39    O44       1.47189      .   S
    N30    O44       2.66454  1_455   S
    C39    O45       1.47034      .   S
    N29    O45       2.66421      .   S
    C46    O47       1.52206      .   S
    N24    O47       2.57622      .   S
    C46    O48       1.47037      .   S
    N24    O48       2.66432      .   S
    C46    O49       1.47189      .   S
    N27    O49       2.66456      .   S
    C46    O50       1.18831      .   S
    Zr0    O50       2.18978  1_554   S
    C46    O51       1.52261      .   S
    N27    O51       2.57774      .   S
    C46    O52       1.18314      .   S
    Zr3    O52       2.17991      .   S
    C53    O54       1.52253  1_655   S
    N26    O54       2.57756      .   S
    C53    O55       1.18306      .   S
    Zr2    O55       2.17984      .   S
    C53    O56       1.18811  1_655   S
    Zr1    O56       2.18939  1_556   S
    C53    O57       1.47143  1_655   S
    N26    O57       2.66505      .   S
    C53    O58       1.47023      .   S
    N31    O58       2.66407      .   S
    C53    O59       1.52187      .   S
    N31    O59       2.57602      .   S
    C60    O61       1.47218      .   S
    N24    O61       2.66513      .   S
    C60    O62       1.52247      .   S
    N27    O62       2.57673      .   S
    C60    O63       1.52315      .   S
    N24    O63       2.57812      .   S
    C60    O64       1.47068      .   S
    N27    O64       2.66485      .   S
    C60    O65       1.18755      .   S
    Zr6    O65       2.18881  1_545   S
    C60    O66       1.18400      .   S
    Zr4    O66       2.17723      .   S
    C67    O68       1.52203      .   S
    N26    O68       2.57637      .   S
    C67    O69       1.47032      .   S
    N26    O69       2.66452      .   S
    C67    O70       1.47188  1_455   S
    N31    O70       2.66469      .   S
    C67    O71       1.52265  1_455   S
    N31    O71       2.57783      .   S
    C67    O72       1.18288      .   S
    Zr5    O72       2.17935      .   S
    C67    O73       1.18783  1_455   S
    Zr7    O73       2.18859  1_565   S
    C74    O75       1.47194      .   S
    N29    O75       2.66453      .   S
    C74    O76       1.52262      .   S
    N29    O76       2.57776      .   S
    C74    O77       1.18301      .   S
    Zr7    O77       2.17951      .   S
    C74    O78       1.18815      .   S
    Zr4    O78       2.18939      .   S
    C74    O79       1.52190      .   S
    N30    O79       2.57597  1_455   S
    C74    O80       1.47026      .   S
    N30    O80       2.66405  1_455   S
    C81    O82       1.52199      .   S
    N25    O82       2.57617      .   S
    C81    O83       1.52264      .   S
    N28    O83       2.57764  1_655   S
    C81    O84       1.47035      .   S
    N25    O84       2.66422      .   S
    C81    O85       1.47186      .   S
    N28    O85       2.66453  1_655   S
    C81    O86       1.18307      .   S
    Zr6    O86       2.17984      .   S
    C81    O87       1.18842      .   S
    Zr5    O87       2.19018      .   S
