# CIF file generated by openbabel 2.4.90, see http://openbabel.sf.net
data_I
_chemical_name_common ''
_cell_length_a 24.165
_cell_length_b 15.381
_cell_length_c 17.043
_cell_angle_alpha 89.908
_cell_angle_beta 90.006
_cell_angle_gamma 91.729
_space_group_name_H-M_alt 'P 1'
_space_group_name_Hall 'P 1'
loop_
    _symmetry_equiv_pos_as_xyz
    x,y,z
loop_
    _atom_site_label
    _atom_site_type_symbol
    _atom_site_fract_x
    _atom_site_fract_y
    _atom_site_fract_z
    _atom_site_occupancy
    Zr0     Zr   0.15646   0.29776   0.85582   1.000
    Zr1     Zr   0.65646   0.29779   0.85583   1.000
    Zr2     Zr   0.28657   0.22687   0.80502   1.000
    Zr3     Zr   0.78655   0.22686   0.80503   1.000
    Zr4     Zr   0.37916   0.00000   0.70860   1.000
    Zr5     Zr   0.87915   0.00000   0.70860   1.000
    Zr6     Zr   0.09342   0.20238   0.35552   1.000
    Zr7     Zr   0.59342   0.20238   0.35550   1.000
    Zr8     Zr   0.46346   0.27347   0.30518   1.000
    Zr9     Zr   0.96344   0.27345   0.30519   1.000
    Zr10    Zr   0.37064   0.49246   0.20946   1.000
    Zr11    Zr   0.87076   0.49233   0.20936   1.000
    Zr12    Zr   0.34355   0.70223   0.14418   1.000
    Zr13    Zr   0.84354   0.70226   0.14418   1.000
    Zr14    Zr   0.21346   0.77314   0.19497   1.000
    Zr15    Zr   0.71344   0.77314   0.19498   1.000
    Zr16    Zr   0.12084   0.99195   0.29140   1.000
    Zr17    Zr   0.62084   0.99192   0.29138   1.000
    Zr18    Zr   0.40658   0.79763   0.64449   1.000
    Zr19    Zr   0.90658   0.79763   0.64448   1.000
    Zr20    Zr   0.03656   0.72655   0.69481   1.000
    Zr21    Zr   0.53655   0.72653   0.69481   1.000
    Zr22    Zr   0.12926   0.50765   0.79062   1.000
    Zr23    Zr   0.62937   0.50752   0.79050   1.000
    N24     N    0.23611   0.76922   0.86200   1.000
    N25     N    0.85643   0.52085   0.85824   1.000
    N26     N    0.35640   0.52084   0.85826   1.000
    N27     N    0.98628   0.26901   0.63791   1.000
    N28     N    0.48635   0.26893   0.63788   1.000
    N29     N    0.73610   0.76919   0.86198   1.000
    N30     N    0.10634   0.02040   0.64197   1.000
    N31     N    0.89365   0.97864   0.35801   1.000
    N32     N    0.14357   0.47917   0.14175   1.000
    N33     N    0.26389   0.23081   0.13801   1.000
    N34     N    0.64360   0.47917   0.14172   1.000
    N35     N    0.60634   0.02040   0.64196   1.000
    N36     N    0.76388   0.23078   0.13795   1.000
    N37     N    0.39365   0.97865   0.35800   1.000
    N38     N    0.51366   0.73106   0.36209   1.000
    N39     N    0.01373   0.73100   0.36207   1.000
    C40     C    0.62043   0.71700   0.76449   1.000
    O41     O    0.66033   0.73088   0.79680   1.000
    O42     O    0.62101   0.64659   0.76833   1.000
    C43     C    0.12043   0.71711   0.76450   1.000
    O44     O    0.16034   0.73097   0.79682   1.000
    O45     O    0.12098   0.64670   0.76837   1.000
    C46     C    0.57978   0.39313   0.73238   1.000
    O47     O    0.54982   0.34834   0.70062   1.000
    O48     O    0.59986   0.36179   0.77845   1.000
    C49     C    0.48726   0.93323   0.70107   1.000
    O50     O    0.52853   0.95931   0.68230   1.000
    O51     O    0.46685   0.88095   0.68672   1.000
    O52     O    0.49935   0.86318   0.69930   1.000
    O53     O    0.45647   0.96662   0.70434   1.000
    C54     C    0.51434   0.73507   0.55810   1.000
    O55     O    0.53140   0.73618   0.59443   1.000
    O56     O    0.47619   0.74647   0.58355   1.000
    O57     O    0.51324   0.73679   0.49206   1.000
    C58     C    0.38253   0.95303   0.54879   1.000
    O59     O    0.37874   0.98093   0.59610   1.000
    O60     O    0.38451   0.96449   0.48498   1.000
    O61     O    0.39188   0.89638   0.57064   1.000
    C62     C    0.07942   0.39352   0.73251   1.000
    O63     O    0.04957   0.34862   0.70072   1.000
    O64     O    0.09971   0.36200   0.77850   1.000
    C65     C    0.63251   0.45282   0.95096   1.000
    O66     O    0.62877   0.48261   0.90338   1.000
    O67     O    0.64183   0.39627   0.92937   1.000
    O68     O    0.63449   0.46455   0.01468   1.000
    C69     C    0.73728   0.43449   0.79910   1.000
    O70     O    0.71681   0.38163   0.81347   1.000
    O71     O    0.74933   0.36390   0.80077   1.000
    O72     O    0.77856   0.46000   0.81794   1.000
    O73     O    0.70656   0.47008   0.79555   1.000
    C74     C    0.43092   0.65086   0.74384   1.000
    O75     O    0.41496   0.69550   0.71306   1.000
    O76     O    0.40734   0.60431   0.78116   1.000
    O77     O    0.46885   0.66656   0.73481   1.000
    C78     C    0.13250   0.45285   0.95097   1.000
    O79     O    0.14182   0.39629   0.92937   1.000
    O80     O    0.13448   0.46456   0.01470   1.000
    O81     O    0.12874   0.48267   0.90342   1.000
    C82     C    0.68065   0.15242   0.75546   1.000
    O83     O    0.65714   0.10529   0.71848   1.000
    O84     O    0.66473   0.19639   0.78684   1.000
    O85     O    0.71863   0.16816   0.76426   1.000
    C86     C    0.18064   0.15239   0.75552   1.000
    O87     O    0.16473   0.19635   0.78688   1.000
    O88     O    0.15714   0.10527   0.71852   1.000
    O89     O    0.21863   0.16815   0.76429   1.000
    C90     C    0.26436   0.23482   0.94190   1.000
    O91     O    0.22618   0.24631   0.91655   1.000
    O92     O    0.26333   0.23651   0.00797   1.000
    O93     O    0.28142   0.23611   0.90551   1.000
    C94     C    0.87051   0.21730   0.73554   1.000
    O95     O    0.91044   0.23105   0.70321   1.000
    O96     O    0.87098   0.14492   0.73144   1.000
    C97     C    0.01433   0.73505   0.55809   1.000
    O98     O    0.03140   0.73618   0.59443   1.000
    O99     O    0.01326   0.73675   0.49204   1.000
    O100    O    0.97618   0.74647   0.58353   1.000
    C101    C    0.76435   0.23481   0.94189   1.000
    O102    O    0.76332   0.23649   0.00795   1.000
    O103    O    0.72617   0.24631   0.91654   1.000
    O104    O    0.78140   0.23611   0.90551   1.000
    C105    C    0.32900   0.89383   0.76658   1.000
    O106    O    0.29924   0.84891   0.79868   1.000
    O107    O    0.34953   0.86205   0.72101   1.000
    C108    C    0.93093   0.65091   0.74384   1.000
    O109    O    0.96885   0.66662   0.73481   1.000
    O110    O    0.91496   0.69553   0.71305   1.000
    O111    O    0.90736   0.60434   0.78115   1.000
    C112    C    0.82899   0.89382   0.76657   1.000
    O113    O    0.84952   0.86205   0.72100   1.000
    O114    O    0.79923   0.84890   0.79867   1.000
    C115    C    0.98616   0.93324   0.70106   1.000
    O116    O    0.02757   0.95932   0.68230   1.000
    O117    O    0.96631   0.88095   0.68671   1.000
    O118    O    0.99880   0.86318   0.69930   1.000
    O119    O    0.95591   0.96662   0.70433   1.000
    C120    C    0.23724   0.43449   0.79910   1.000
    O121    O    0.21679   0.38162   0.81347   1.000
    O122    O    0.24931   0.36390   0.80077   1.000
    O123    O    0.27852   0.46001   0.81794   1.000
    O124    O    0.20649   0.47011   0.79558   1.000
    C125    C    0.88253   0.95301   0.54875   1.000
    O126    O    0.88451   0.96448   0.48502   1.000
    O127    O    0.87873   0.98092   0.59607   1.000
    O128    O    0.89188   0.89637   0.57059   1.000
    C129    C    0.37055   0.21734   0.73553   1.000
    O130    O    0.41049   0.23105   0.70319   1.000
    O131    O    0.37101   0.14496   0.73143   1.000
    C132    C    0.48566   0.26493   0.44189   1.000
    O133    O    0.48676   0.26321   0.50793   1.000
    O134    O    0.46860   0.26381   0.40556   1.000
    O135    O    0.52381   0.25352   0.41644   1.000
    C136    C    0.31935   0.84759   0.24453   1.000
    O137    O    0.33527   0.80362   0.21316   1.000
    O138    O    0.28137   0.83184   0.23573   1.000
    O139    O    0.34286   0.89448   0.28150   1.000
    C140    C    0.76277   0.56551   0.20089   1.000
    O141    O    0.79352   0.52989   0.20441   1.000
    O142    O    0.78322   0.61838   0.18653   1.000
    O143    O    0.75069   0.63610   0.19923   1.000
    O144    O    0.72149   0.54000   0.18204   1.000
    C145    C    0.61747   0.04698   0.45104   1.000
    O146    O    0.60812   0.10363   0.42915   1.000
    O147    O    0.61549   0.03528   0.51486   1.000
    O148    O    0.62126   0.01705   0.40381   1.000
    C149    C    0.42025   0.60682   0.26761   1.000
    O150    O    0.40015   0.63818   0.22154   1.000
    O151    O    0.45020   0.65162   0.29936   1.000
    C152    C    0.86750   0.54716   0.04900   1.000
    O153    O    0.87127   0.51733   0.09655   1.000
    O154    O    0.86552   0.53545   0.98528   1.000
    O155    O    0.85818   0.60372   0.07062   1.000
    C156    C    0.67100   0.10616   0.23322   1.000
    O157    O    0.70075   0.15108   0.20120   1.000
    O158    O    0.65047   0.13794   0.27873   1.000
    C159    C    0.12950   0.78271   0.26446   1.000
    O160    O    0.12903   0.85307   0.26855   1.000
    O161    O    0.08957   0.76897   0.29679   1.000
    C162    C    0.17101   0.10618   0.23342   1.000
    O163    O    0.15048   0.13795   0.27899   1.000
    O164    O    0.20076   0.15110   0.20132   1.000
    C165    C    0.06908   0.34910   0.25614   1.000
    O166    O    0.09264   0.39567   0.21883   1.000
    O167    O    0.03115   0.33339   0.26518   1.000
    O168    O    0.08504   0.30448   0.28695   1.000
    C169    C    0.11747   0.04699   0.45123   1.000
    O170    O    0.10812   0.10364   0.42937   1.000
    O171    O    0.11549   0.03529   0.51497   1.000
    O172    O    0.12127   0.01707   0.40392   1.000
    C173    C    0.62946   0.78266   0.26445   1.000
    O174    O    0.62899   0.85303   0.26855   1.000
    O175    O    0.58951   0.76895   0.29678   1.000
    C176    C    0.81936   0.84762   0.24449   1.000
    O177    O    0.83527   0.80367   0.21312   1.000
    O178    O    0.78137   0.83185   0.23572   1.000
    O179    O    0.84286   0.89450   0.28147   1.000
    C180    C    0.87957   0.28288   0.23550   1.000
    O181    O    0.83966   0.26902   0.20308   1.000
    O182    O    0.87903   0.35328   0.23163   1.000
    C183    C    0.56908   0.34915   0.25615   1.000
    O184    O    0.58504   0.30451   0.28694   1.000
    O185    O    0.59266   0.39571   0.21883   1.000
    O186    O    0.53115   0.33344   0.26519   1.000
    C187    C    0.01274   0.06552   0.29892   1.000
    O188    O    0.04354   0.02982   0.29566   1.000
    O189    O    0.97147   0.03983   0.31769   1.000
    O190    O    0.03315   0.11843   0.31327   1.000
    O191    O    0.00065   0.13620   0.30068   1.000
    C192    C    0.37957   0.28299   0.23548   1.000
    O193    O    0.33967   0.26911   0.20317   1.000
    O194    O    0.37900   0.35340   0.23165   1.000
    C195    C    0.51274   0.06553   0.29893   1.000
    O196    O    0.53315   0.11843   0.31328   1.000
    O197    O    0.50065   0.13620   0.30070   1.000
    O198    O    0.47147   0.03983   0.31769   1.000
    O199    O    0.54353   0.02982   0.29566   1.000
    C200    C    0.98567   0.26494   0.44190   1.000
    O201    O    0.02381   0.25353   0.41646   1.000
    O202    O    0.96860   0.26381   0.40557   1.000
    O203    O    0.98674   0.26324   0.50795   1.000
    C204    C    0.36749   0.54718   0.04903   1.000
    O205    O    0.36551   0.53546   0.98530   1.000
    O206    O    0.37123   0.51739   0.09660   1.000
    O207    O    0.35817   0.60373   0.07063   1.000
    C208    C    0.92065   0.60641   0.26746   1.000
    O209    O    0.90033   0.63797   0.22149   1.000
    O210    O    0.95048   0.65134   0.29926   1.000
    C211    C    0.73564   0.76518   0.05782   1.000
    O212    O    0.71858   0.76389   0.09416   1.000
    O213    O    0.73667   0.76350   0.99188   1.000
    O214    O    0.77382   0.75370   0.08331   1.000
    C215    C    0.23565   0.76519   0.05811   1.000
    O216    O    0.23668   0.76351   0.99204   1.000
    O217    O    0.27383   0.75369   0.08346   1.000
    O218    O    0.21860   0.76389   0.09450   1.000
    C219    C    0.26273   0.56550   0.20089   1.000
    O220    O    0.28320   0.61837   0.18652   1.000
    O221    O    0.25068   0.63610   0.19922   1.000
    O222    O    0.29345   0.52991   0.20443   1.000
    O223    O    0.22145   0.54000   0.18206   1.000
    O224    O    0.59747   0.71922   0.74560   1.000
    O225    O    0.15735   0.07517   0.24950   1.000
    O226    O    0.65735   0.07515   0.24931   1.000
    O227    O    0.34265   0.92283   0.75050   1.000
    O228    O    0.84753   0.21953   0.75437   1.000
    O229    O    0.34756   0.21956   0.75437   1.000
    O230    O    0.40672   0.57578   0.25151   1.000
    O231    O    0.15248   0.78048   0.24562   1.000
    O232    O    0.59331   0.42417   0.74847   1.000
    O233    O    0.65244   0.78044   0.24562   1.000
    O234    O    0.40253   0.28077   0.25438   1.000
    O235    O    0.90706   0.57544   0.25137   1.000
    O236    O    0.09300   0.42450   0.74860   1.000
    O237    O    0.84264   0.92282   0.75050   1.000
    O238    O    0.90252   0.28068   0.25439   1.000
    O239    O    0.09748   0.71931   0.74561   1.000
loop_
    _geom_bond_atom_site_label_1
    _geom_bond_atom_site_label_2
    _geom_bond_distance
    _geom_bond_site_symmetry_2
    _ccdc_geom_bond_type
    C40    O41       1.12547      .   S
    N29    O41       2.20680      .   S
    C40    O42       1.08536      .   S
    Zr23   O42       2.18684      .   S
    C43    O44       1.12545      .   S
    N24    O44       2.20678      .   S
    C43    O45       1.08527      .   S
    Zr22   O45       2.18663      .   S
    C46    O47       1.12366      .   S
    N28    O47       2.20879      .   S
    C46    O48       1.04744      .   S
    Zr1    O48       2.15765      .   S
    C49    O50       1.11051      .   S
    N35    O50       2.18693  1_545   S
    C49    O51       0.96248      .   S
    Zr18   O51       2.04260      .   S
    C49    O52       1.12534      .   S
    Zr21   O52       2.31208      .   S
    C49    O53       0.91859      .   S
    Zr4    O53       1.95361  1_545   S
    C54    O55       0.74378      .   S
    Zr21   O55       1.72171      .   S
    C54    O56       1.03871      .   S
    Zr18   O56       2.14711      .   S
    C54    O57       1.12620      .   S
    N38    O57       2.21702      .   S
    C58    O59       0.91983      .   S
    Zr4    O59       1.94010  1_545   S
    C58    O60       1.10229      .   S
    N37    O60       2.18526      .   S
    C58    O61       0.97963      .   S
    Zr18   O61       2.01086      .   S
    C62    O63       1.12332      .   S
    N27    O63       2.20804  1_655   S
    C62    O64       1.05005      .   S
    Zr0    O64       2.16124      .   S
    C65    O66       0.93650      .   S
    Zr23   O66       1.96092      .   S
    C65    O67       0.97747      .   S
    Zr1    O67       2.00726      .   S
    C65    O68       1.10197  1_556   S
    N34    O68       2.18747      .   S
    C69    O70       0.97004      .   S
    Zr1    O70       2.04810      .   S
    C69    O71       1.13302      .   S
    Zr3    O71       2.31749      .   S
    C69    O72       1.10846      .   S
    N25    O72       2.18724      .   S
    C69    O73       0.93739      .   S
    Zr23   O73       1.97041      .   S
    C74    O75       0.95410      .   S
    Zr18   O75       1.97160      .   S
    C74    O76       1.10267      .   S
    N26    O76       2.18852      .   S
    C74    O77       0.95314      .   S
    Zr21   O77       1.97452      .   S
    C78    O79       0.97777      .   S
    Zr0    O79       2.00786      .   S
    C78    O80       1.10210  1_556   S
    N32    O80       2.18763      .   S
    C78    O81       0.93640      .   S
    Zr22   O81       1.95975      .   S
    C82    O83       1.10540      .   S
    N35    O83       2.19565      .   S
    C82    O84       0.95300      .   S
    Zr1    O84       1.96965      .   S
    C82    O85       0.95400      .   S
    Zr3    O85       1.97582      .   S
    C86    O87       0.95278      .   S
    Zr0    O87       1.96925      .   S
    C86    O88       1.10540      .   S
    N30    O88       2.19577      .   S
    C86    O89       0.95415      .   S
    Zr2    O89       1.97608      .   S
    C90    O91       1.03872      .   S
    Zr0    O91       2.14771      .   S
    C90    O92       1.12667  1_556   S
    N33    O92       2.21792      .   S
    C90    O93       0.74465      .   S
    Zr2    O93       1.72355      .   S
    C94    O95       1.12558      .   S
    N27    O95       2.20717      .   S
    C94    O96       1.11595      .   S
    Zr5    O96       2.27785      .   S
    C97    O98       0.74398      .   S
    Zr20   O98       1.72185      .   S
    C97    O99       1.12622      .   S
    N39    O99       2.21705      .   S
    C97    O100      1.03863  1_455   S
    Zr19   O100      2.14705      .   S
    C101   O102      1.12641  1_556   S
    N36    O102      2.21723      .   S
    C101   O103      1.03869      .   S
    Zr1    O103      2.14768      .   S
    C101   O104      0.74453      .   S
    Zr3    O104      1.72336      .   S
    C105   O106      1.12362      .   S
    N24    O106      2.20850      .   S
    C105   O107      1.05075      .   S
    Zr18   O107      2.16110      .   S
    C108   O109      0.95324      .   S
    Zr20   O109      1.97454  1_455   S
    C108   O110      0.95391      .   S
    Zr19   O110      1.97130      .   S
    C108   O111      1.10264      .   S
    N25    O111      2.18851      .   S
    C112   O113      1.05079      .   S
    Zr19   O113      2.16124      .   S
    C112   O114      1.12364      .   S
    N29    O114      2.20852      .   S
    C115   O116      1.11343  1_655   S
    N30    O116      2.20665  1_545   S
    C115   O117      0.95605      .   S
    Zr19   O117      2.03332      .   S
    C115   O118      1.12922      .   S
    Zr20   O118      2.31761  1_455   S
    C115   O119      0.90765      .   S
    Zr5    O119      1.94086  1_545   S
    C120   O121      0.96988      .   S
    Zr0    O121      2.04772      .   S
    C120   O122      1.13314      .   S
    Zr2    O122      2.31774      .   S
    C120   O123      1.10858      .   S
    N26    O123      2.18748      .   S
    C120   O124      0.93812      .   S
    Zr22   O124      1.97198      .   S
    C125   O126      1.10090      .   S
    N31    O126      2.18567      .   S
    C125   O127      0.92014      .   S
    Zr5    O127      1.94060  1_545   S
    C125   O128      0.97957      .   S
    Zr19   O128      2.01119      .   S
    C129   O130      1.12572      .   S
    N28    O130      2.20735      .   S
    C129   O131      1.11610      .   S
    Zr4    O131      2.27826      .   S
    C132   O133      1.12612      .   S
    N28    O133      2.21675      .   S
    C132   O134      0.74379      .   S
    Zr8    O134      1.72174      .   S
    C132   O135      1.03873      .   S
    Zr7    O135      2.14712      .   S
    C136   O137      0.95290      .   S
    Zr12   O137      1.96955      .   S
    C136   O138      0.95397      .   S
    Zr14   O138      1.97568      .   S
    C136   O139      1.10296      .   S
    N37    O139      2.18899      .   S
    C140   O141      0.93824      .   S
    Zr11   O141      1.97228      .   S
    C140   O142      0.96990      .   S
    Zr13   O142      2.04774      .   S
    C140   O143      1.13316      .   S
    Zr15   O143      2.31780      .   S
    C140   O144      1.10864      .   S
    N34    O144      2.18761      .   S
    C145   O146      0.97993      .   S
    Zr7    O146      2.00875      .   S
    C145   O147      1.10307      .   S
    N35    O147      2.18827      .   S
    C145   O148      0.93373      .   S
    Zr17   O148      1.95536  1_565   S
    C149   O150      1.04768      .   S
    Zr12   O150      2.15795      .   S
    C149   O151      1.12362      .   S
    N38    O151      2.20866      .   S
    C152   O153      0.93633      .   S
    Zr11   O153      1.96013      .   S
    C152   O154      1.10194  1_554   S
    N25    O154      2.18749      .   S
    C152   O155      0.97792      .   S
    Zr13   O155      2.00814      .   S
    C156   O157      1.12288      .   S
    N36    O157      2.20799      .   S
    C156   O158      1.05013      .   S
    Zr7    O158      2.16367      .   S
    C159   O160      1.08501      .   S
    Zr16   O160      2.18671      .   S
    C159   O161      1.12557      .   S
    N39    O161      2.20709      .   S
    C162   O163      1.05080      .   S
    Zr6    O163      2.16133      .   S
    C162   O164      1.12366      .   S
    N33    O164      2.20856      .   S
    C165   O166      1.10265      .   S
    N32    O166      2.18839      .   S
    C165   O167      0.95328      .   S
    Zr9    O167      1.97464  1_655   S
    C165   O168      0.95401      .   S
    Zr6    O168      1.97141      .   S
    C169   O170      0.97964      .   S
    Zr6    O170      2.01084      .   S
    C169   O171      1.10162      .   S
    N30    O171      2.18672      .   S
    C169   O172      0.93489      .   S
    Zr16   O172      1.95676  1_565   S
    C173   O174      1.08510      .   S
    Zr17   O174      2.18681      .   S
    C173   O175      1.12571      .   S
    N38    O175      2.20736      .   S
    C176   O177      0.95277      .   S
    Zr13   O177      1.96925      .   S
    C176   O178      0.95415      .   S
    Zr15   O178      1.97608      .   S
    C176   O179      1.10295      .   S
    N31    O179      2.18914      .   S
    C180   O181      1.12630      .   S
    N36    O181      2.20640      .   S
    C180   O182      1.08525      .   S
    Zr11   O182      2.18658      .   S
    C183   O184      0.95407      .   S
    Zr7    O184      1.97160      .   S
    C183   O185      1.10273      .   S
    N34    O185      2.18866      .   S
    C183   O186      0.95317      .   S
    Zr8    O186      1.97457      .   S
    C187   O188      0.93987      .   S
    Zr16   O188      1.97490  1_565   S
    C187   O189      1.10857  1_455   S
    N31    O189      2.18753  1_565   S
    C187   O190      0.97032      .   S
    Zr6    O190      2.04853      .   S
    C187   O191      1.13451      .   S
    Zr9    O191      2.32087  1_655   S
    C192   O193      1.12547      .   S
    N33    O193      2.20669      .   S
    C192   O194      1.08533      .   S
    Zr10   O194      2.18681      .   S
    C195   O196      0.97035      .   S
    Zr7    O196      2.04845      .   S
    C195   O197      1.13453      .   S
    Zr8    O197      2.32088      .   S
    C195   O198      1.10854      .   S
    N37    O198      2.18743  1_565   S
    C195   O199      0.93992      .   S
    Zr17   O199      1.97496  1_565   S
    C200   O201      1.03862  1_655   S
    Zr6    O201      2.14699      .   S
    C200   O202      0.74392      .   S
    Zr9    O202      1.72173      .   S
    C200   O203      1.12619      .   S
    N27    O203      2.21695      .   S
    C204   O205      1.10218  1_554   S
    N26    O205      2.18753      .   S
    C204   O206      0.93641      .   S
    Zr10   O206      1.96064      .   S
    C204   O207      0.97754      .   S
    Zr12   O207      2.00744      .   S
    C208   O209      1.05062      .   S
    Zr13   O209      2.16201      .   S
    C208   O210      1.12323      .   S
    N39    O210      2.20780  1_455   S
    C211   O212      0.74378      .   S
    Zr15   O212      1.72924      .   S
    C211   O213      1.12455  1_554   S
    N29    O213      2.21553      .   S
    C211   O214      1.03961      .   S
    Zr13   O214      2.14889      .   S
    C215   O216      1.12667  1_554   S
    N24    O216      2.21796      .   S
    C215   O217      1.03870      .   S
    Zr12   O217      2.14772      .   S
    C215   O218      0.74452      .   S
    Zr14   O218      1.72329      .   S
    C219   O220      0.97007      .   S
    Zr12   O220      2.04809      .   S
    C219   O221      1.13303      .   S
    Zr14   O221      2.31752      .   S
    C219   O222      0.93744      .   S
    Zr10   O222      1.97051      .   S
    C219   O223      1.10848      .   S
    N32    O223      2.18731      .   S
    Zr21   O224      1.71433      .   S
    C40    O224      0.64310      .   S
    Zr16   O225      1.68990  1_565   S
    C162   O225      0.63369      .   S
    Zr17   O226      1.69118  1_565   S
    C156   O226      0.63387      .   S
    Zr4    O227      1.62220  1_545   S
    C105   O227      0.61122      .   S
    Zr3    O228      1.71476      .   S
    C94    O228      0.64321      .   S
    Zr2    O229      1.71498      .   S
    C129   O229      0.64333      .   S
    Zr10   O230      1.68873      .   S
    C149   O230      0.63327      .   S
    Zr14   O231      1.71470      .   S
    C159   O231      0.64320      .   S
    Zr23   O232      1.68868      .   S
    C46    O232      0.63325      .   S
    Zr15   O233      1.71487      .   S
    C173   O233      0.64326      .   S
    C192   O234      0.64320      .   S
    Zr8    O234      1.71441      .   S
    C208   O235      0.63322      .   S
    Zr11   O235      1.68856      .   S
    C62    O236      0.63322      .   S
    Zr22   O236      1.68859      .   S
    Zr5    O237      1.62230  1_545   S
    C112   O237      0.61126      .   S
    C180   O238      0.64304      .   S
    Zr9    O238      1.71414      .   S
    C43    O239      0.64303      .   S
    Zr20   O239      1.71410      .   S
