# CIF file generated by openbabel 2.4.90, see http://openbabel.sf.net
data_I
_chemical_name_common ''
_cell_length_a 10.118
_cell_length_b 11.5955
_cell_length_c 14.799
_cell_angle_alpha 91.129
_cell_angle_beta 90.007
_cell_angle_gamma 90.057
_space_group_name_H-M_alt 'P 1'
_space_group_name_Hall 'P 1'
loop_
    _symmetry_equiv_pos_as_xyz
    x,y,z
loop_
    _atom_site_label
    _atom_site_type_symbol
    _atom_site_fract_x
    _atom_site_fract_y
    _atom_site_fract_z
    _atom_site_occupancy
    Lv0     Lv   0.60091   0.24283   0.46749   1.000
    Lv1     Lv   0.77181   0.57030   0.44258   1.000
    Lv2     Lv   0.78194   0.92192   0.44890   1.000
    Lv3     Lv   0.10081   0.25730   0.03254   1.000
    Lv4     Lv   0.89919   0.74269   0.96743   1.000
    Lv5     Lv   0.21806   0.07806   0.55108   1.000
    Lv6     Lv   0.22819   0.42968   0.55739   1.000
    Lv7     Lv   0.83961   0.17631   0.67134   1.000
    Lv8     Lv   0.63310   0.45105   0.68204   1.000
    Lv9     Lv   0.66024   0.67634   0.17141   1.000
    Lv10    Lv   0.27193   0.92987   0.05442   1.000
    Lv11    Lv   0.28185   0.57823   0.05114   1.000
    Lv12    Lv   0.39909   0.75715   0.53248   1.000
    Lv13    Lv   0.86706   0.95098   0.18207   1.000
    Lv14    Lv   0.47635   0.97853   0.29157   1.000
    Lv15    Lv   0.02389   0.47851   0.79152   1.000
    Lv16    Lv   0.97611   0.52148   0.20844   1.000
    Lv17    Lv   0.72807   0.07013   0.94247   1.000
    Lv18    Lv   0.52366   0.02146   0.70840   1.000
    Lv19    Lv   0.33976   0.32365   0.82856   1.000
    Lv20    Lv   0.16039   0.82367   0.32863   1.000
    Lv21    Lv   0.36690   0.54893   0.31793   1.000
    Lv22    Lv   0.71815   0.42176   0.94880   1.000
    Lv23    Lv   0.13295   0.04901   0.81790   1.000
