# CIF file generated by openbabel 2.4.90, see http://openbabel.sf.net
data_I
_chemical_name_common ''
_cell_length_a 12.906
_cell_length_b 14.615
_cell_length_c 15.125
_cell_angle_alpha 90.005
_cell_angle_beta 90.014
_cell_angle_gamma 89.976
_space_group_name_H-M_alt 'P 1'
_space_group_name_Hall 'P 1'
loop_
    _symmetry_equiv_pos_as_xyz
    x,y,z
loop_
    _atom_site_label
    _atom_site_type_symbol
    _atom_site_fract_x
    _atom_site_fract_y
    _atom_site_fract_z
    _atom_site_occupancy
    H0      H    0.37113   0.65021   0.74485   1.000
    H1      H    0.86991   0.65191   0.74503   1.000
    H2      H    0.38458   0.53392   0.86480   1.000
    H3      H    0.88182   0.53632   0.86576   1.000
    H4      H    0.48837   0.25843   0.71843   1.000
    H5      H    0.98635   0.25973   0.72165   1.000
    H6      H    0.54479   0.21875   0.56656   1.000
    H7      H    0.00000   0.21903   0.57041   1.000
    H8      H    0.55259   0.33923   0.45032   1.000
    H9      H    0.00000   0.33883   0.45354   1.000
    H10     H    0.50364   0.49851   0.48499   1.000
    H11     H    0.00000   0.49840   0.48699   1.000
    H12     H    0.37901   0.34712   0.24375   1.000
    H13     H    0.87931   0.34700   0.24561   1.000
    H14     H    0.36659   0.46289   0.36431   1.000
    H15     H    0.86622   0.46275   0.36613   1.000
    H16     H    0.26320   0.73941   0.21930   1.000
    H17     H    0.76138   0.73880   0.22118   1.000
    H18     H    0.20644   0.77989   0.06775   1.000
    H19     H    0.70462   0.77911   0.06953   1.000
    H20     H    0.19771   0.65991   0.95104   1.000
    H21     H    0.69708   0.65921   0.95270   1.000
    H22     H    0.24618   0.50036   0.98498   1.000
    H23     H    0.74651   0.49985   0.98661   1.000
    H24     H    0.13003   0.15247   0.75563   1.000
    H25     H    0.62877   0.15013   0.75521   1.000
    H26     H    0.11774   0.03709   0.63472   1.000
    H27     H    0.61541   0.03382   0.63520   1.000
    H28     H    0.01274   0.76058   0.77847   1.000
    H29     H    0.51160   0.75841   0.78160   1.000
    H30     H    0.95559   0.71965   0.92980   1.000
    H31     H    0.45522   0.71879   0.93348   1.000
    H32     H    0.94698   0.83920   0.04693   1.000
    H33     H    0.44743   0.83930   0.04971   1.000
    H34     H    0.99606   0.99874   0.01371   1.000
    H35     H    0.49629   0.99855   0.01501   1.000
    H36     H    0.12054   0.84738   0.25448   1.000
    H37     H    0.62083   0.84719   0.25635   1.000
    H38     H    0.13389   0.96294   0.13382   1.000
    H39     H    0.63329   0.96299   0.13584   1.000
    H40     H    0.23889   0.23904   0.27859   1.000
    H41     H    0.73676   0.23936   0.28090   1.000
    H42     H    0.29566   0.27940   0.43021   1.000
    H43     H    0.79366   0.27974   0.43248   1.000
    H44     H    0.30314   0.15958   0.54714   1.000
    H45     H    0.80240   0.15971   0.54916   1.000
    H46     H    0.25361   0.00027   0.51332   1.000
    H47     H    0.75384   0.00023   0.51519   1.000
    C48     C    0.43265   0.56200   0.64480   1.000
    C49     C    0.93231   0.56297   0.64593   1.000
    C50     C    0.39918   0.58156   0.72999   1.000
    C51     C    0.89790   0.58310   0.73074   1.000
    C52     C    0.40504   0.51558   0.79722   1.000
    C53     C    0.90284   0.51753   0.79837   1.000
    C54     C    0.43625   0.42700   0.77849   1.000
    C55     C    0.93410   0.42879   0.78037   1.000
    C56     C    0.46479   0.40213   0.69035   1.000
    C57     C    0.96344   0.40331   0.69260   1.000
    C58     C    0.46744   0.47164   0.62269   1.000
    C59     C    0.96698   0.47240   0.62458   1.000
    C60     C    0.49305   0.31105   0.66768   1.000
    C61     C    0.99166   0.31204   0.67064   1.000
    C62     C    0.52362   0.28898   0.58300   1.000
    C63     C    0.00000   0.28941   0.58631   1.000
    C64     C    0.52756   0.35727   0.51696   1.000
    C65     C    0.00000   0.35730   0.51991   1.000
    C66     C    0.50000   0.44633   0.53621   1.000
    C67     C    0.00000   0.44652   0.53847   1.000
    C68     C    0.31732   0.43599   0.14427   1.000
    C69     C    0.81748   0.43567   0.14604   1.000
    C70     C    0.35116   0.41593   0.22927   1.000
    C71     C    0.85129   0.41574   0.23107   1.000
    C72     C    0.34589   0.48161   0.29682   1.000
    C73     C    0.84560   0.48142   0.29861   1.000
    C74     C    0.31484   0.57036   0.27860   1.000
    C75     C    0.81411   0.57003   0.28035   1.000
    C76     C    0.28607   0.59574   0.19064   1.000
    C77     C    0.78534   0.59529   0.19237   1.000
    C78     C    0.28288   0.52656   0.12267   1.000
    C79     C    0.78268   0.52613   0.12439   1.000
    C80     C    0.25811   0.68700   0.16839   1.000
    C81     C    0.75680   0.68643   0.17017   1.000
    C82     C    0.22732   0.70952   0.08387   1.000
    C83     C    0.72603   0.70885   0.08561   1.000
    C84     C    0.22288   0.64153   0.01754   1.000
    C85     C    0.72221   0.64089   0.01922   1.000
    C86     C    0.25015   0.55232   0.03636   1.000
    C87     C    0.75001   0.55180   0.03804   1.000
    C88     C    0.06772   0.06349   0.85465   1.000
    C89     C    0.56720   0.06196   0.85523   1.000
    C90     C    0.10200   0.08367   0.76982   1.000
    C91     C    0.60072   0.08149   0.77006   1.000
    C92     C    0.09676   0.01822   0.70209   1.000
    C93     C    0.59492   0.01550   0.70282   1.000
    C94     C    0.06519   0.92960   0.72003   1.000
    C95     C    0.56372   0.92694   0.72150   1.000
    C96     C    0.03608   0.90404   0.80781   1.000
    C97     C    0.53515   0.90210   0.80960   1.000
    C98     C    0.03295   0.97298   0.87590   1.000
    C99     C    0.53247   0.97162   0.87734   1.000
    C100    C    0.00776   0.81279   0.82962   1.000
    C101    C    0.50692   0.81104   0.83235   1.000
    C102    C    0.97673   0.79002   0.91000   1.000
    C103    C    0.47636   0.78901   0.91700   1.000
    C104    C    0.97235   0.85778   0.98055   1.000
    C105    C    0.47243   0.85731   0.98308   1.000
    C106    C    0.99993   0.94698   0.96212   1.000
    C107    C    0.49994   0.94635   0.96382   1.000
    C108    C    0.18254   0.93610   0.35394   1.000
    C109    C    0.68251   0.93598   0.35586   1.000
    C110    C    0.14872   0.91607   0.26890   1.000
    C111    C    0.64868   0.91597   0.27085   1.000
    C112    C    0.15453   0.98164   0.20133   1.000
    C113    C    0.65396   0.98167   0.20334   1.000
    C114    C    0.18610   0.07023   0.21950   1.000
    C115    C    0.68500   0.07038   0.22162   1.000
    C116    C    0.21487   0.09558   0.30740   1.000
    C117    C    0.71382   0.09571   0.30958   1.000
    C118    C    0.21747   0.02650   0.37549   1.000
    C119    C    0.71700   0.02651   0.37751   1.000
    C120    C    0.24345   0.18670   0.32962   1.000
    C121    C    0.74184   0.18694   0.33183   1.000
    C122    C    0.27423   0.20915   0.41416   1.000
    C123    C    0.77271   0.20940   0.41635   1.000
    C124    C    0.27800   0.14125   0.48060   1.000
    C125    C    0.77716   0.14139   0.48265   1.000
    C126    C    0.25016   0.05218   0.46180   1.000
    C127    C    0.74982   0.05221   0.46381   1.000
loop_
    _geom_bond_atom_site_label_1
    _geom_bond_atom_site_label_2
    _geom_bond_distance
    _geom_bond_site_symmetry_2
    _ccdc_geom_bond_type
    H34    C106      1.08784  1_554   S
    H35    C107      1.08792  1_554   S
    C84    C86       1.37999      .   S
    C84    C82       1.41315      .   S
    C84    H20       1.09046  1_554   S
    C85    C87       1.38010      .   S
    C85    C83       1.41319      .   S
    C85    H21       1.09040  1_554   S
    C86    C78       1.42269      .   S
    C86    H22       1.08777  1_554   S
    C87    C79       1.42268      .   S
    C87    H23       1.08786  1_554   S
    H32    C104      1.09050  1_554   S
    H33    C105      1.09057  1_554   S
    H18    C82       1.09066      .   S
    H19    C83       1.09069      .   S
    C82    C80       1.37847      .   S
    C83    C81       1.37862      .   S
    C78    C68       1.43393      .   S
    C78    C76       1.44241      .   S
    C79    C69       1.43394      .   S
    C79    C77       1.44224      .   S
    H38    C112      1.09002      .   S
    H39    C113      1.08992      .   S
    C68    C70       1.38896      .   S
    C69    C71       1.38883      .   S
    C80    C76       1.42201      .   S
    C80    H16       1.08804      .   S
    C81    C77       1.42196      .   S
    C81    H17       1.08840      .   S
    C76    C74       1.43010      .   S
    C77    C75       1.42990      .   S
    C112   C114      1.38500  1_565   S
    C112   C110      1.40308      .   S
    C113   C115      1.38506  1_565   S
    C113   C111      1.40334      .   S
    C114   C116      1.42918      .   S
    C115   C117      1.43006      .   S
    C70    H12       1.09002      .   S
    C70    C72       1.40348      .   S
    C71    H13       1.09003      .   S
    C71    C73       1.40359      .   S
    H36    C110      1.08993      .   S
    H37    C111      1.09000      .   S
    C110   C108      1.38938      .   S
    C111   C109      1.38894      .   S
    H40    C120      1.08832      .   S
    C74    C72       1.38511      .   S
    C75    C73       1.38504      .   S
    H41    C121      1.08843      .   S
    C72    H14       1.08998      .   S
    C73    H15       1.08997      .   S
    C116   C120      1.42215      .   S
    C116   C118      1.44263      .   S
    C117   C121      1.42200      .   S
    C117   C119      1.44238      .   S
    C120   C122      1.37850      .   S
    C121   C123      1.37854      .   S
    C108   C118      1.43366  1_565   S
    C109   C119      1.43397  1_565   S
    C118   C126      1.42222      .   S
    C119   C127      1.42272      .   S
    C122   H42       1.09067      .   S
    C122   C124      1.41324      .   S
    C123   H43       1.09066      .   S
    C123   C125      1.41316      .   S
    H8     C64       1.09081      .   S
    H9     C65       1.03950      .   S
    C126   C124      1.38012      .   S
    C126   H46       1.08851      .   S
    C127   C125      1.38004      .   S
    C127   H47       1.08804      .   S
    C124   H44       1.09078      .   S
    C125   H45       1.09070      .   S
    H10    C66       1.08818      .   S
    H11    C67       1.08681      .   S
    C64    C66       1.38020      .   S
    C64    C62       1.41311      .   S
    C65    C67       1.33382      .   S
    C65    C63       1.41183      .   S
    C66    C58       1.42277      .   S
    C67    C59       1.42161  1_455   S
    H6     C62       1.09072      .   S
    H7     C63       1.05628      .   S
    C62    C60       1.37850      .   S
    C63    C61       1.32205  1_455   S
    C58    C48       1.43421      .   S
    C58    C56       1.44241      .   S
    C59    C49       1.43390      .   S
    C59    C57       1.44234      .   S
    H26    C92       1.08992      .   S
    H27    C93       1.08988      .   S
    C48    C50       1.38876      .   S
    C49    C51       1.38899      .   S
    C60    C56       1.42199      .   S
    C60    H4        1.08835      .   S
    C61    C57       1.42196      .   S
    C61    H5        1.08846      .   S
    C56    C54       1.43004      .   S
    C57    C55       1.42982      .   S
    C92    C94       1.38484  1_545   S
    C92    C90       1.40317      .   S
    C93    C95       1.38483  1_545   S
    C93    C91       1.40354      .   S
    C94    C96       1.42964      .   S
    C95    C97       1.42959      .   S
    C50    H0        1.08998      .   S
    C50    C52       1.40339      .   S
    C51    H1        1.09001      .   S
    C51    C53       1.40325      .   S
    H25    C91       1.09000      .   S
    H24    C90       1.09000      .   S
    C90    C88       1.38904      .   S
    C91    C89       1.38871      .   S
    H28    C100      1.08844      .   S
    C54    C52       1.38498      .   S
    C55    C53       1.38496      .   S
    H29    C101      1.08837      .   S
    C52    H2        1.08919      .   S
    C53    H3        1.08996      .   S
    C96    C100      1.42189      .   S
    C96    C98       1.44123      .   S
    C97    C101      1.42227      .   S
    C97    C99       1.44326      .   S
    C100   C102      1.32272  1_455   S
    C101   C103      1.37803      .   S
    C88    C98       1.43354  1_545   S
    C89    C99       1.43409  1_545   S
    C98    C106      1.42372  1_455   S
    C99    C107      1.42270      .   S
    C102   H30       1.10550      .   S
    C102   C104      1.45680      .   S
    C103   H31       1.09084      .   S
    C103   C105      1.41350      .   S
    C106   C104      1.38015      .   S
    C107   C105      1.38016      .   S
