# CIF file generated by openbabel 2.4.90, see http://openbabel.sf.net
data_I
_chemical_name_common ''
_cell_length_a 23.285
_cell_length_b 13.976
_cell_length_c 15.782
_cell_angle_alpha 96.063
_cell_angle_beta 89.996
_cell_angle_gamma 89.977
_space_group_name_H-M_alt 'P 1'
_space_group_name_Hall 'P 1'
loop_
    _symmetry_equiv_pos_as_xyz
    x,y,z
loop_
    _atom_site_label
    _atom_site_type_symbol
    _atom_site_fract_x
    _atom_site_fract_y
    _atom_site_fract_z
    _atom_site_occupancy
    N0      N    0.79749   0.29748   0.49446   1.000
    N1      N    0.29750   0.29748   0.49446   1.000
    N2      N    0.04749   0.70250   0.50549   1.000
    N3      N    0.54749   0.70250   0.50549   1.000
    N4      N    0.54736   0.79833   0.99535   1.000
    N5      N    0.04736   0.79833   0.99535   1.000
    N6      N    0.29736   0.20133   0.00294   1.000
    N7      N    0.79736   0.20133   0.00294   1.000
    Zr8     Zr   0.04764   0.29843   0.99427   1.000
    O9      O    0.04773   0.46718   0.99715   1.000
    O10     O    0.04733   0.12956   0.99218   1.000
    Zr11    Zr   0.54763   0.29843   0.99427   1.000
    O12     O    0.54732   0.12956   0.99218   1.000
    O13     O    0.54773   0.46718   0.99715   1.000
    Zr14    Zr   0.29762   0.70156   0.00569   1.000
    O15     O    0.29773   0.53273   0.00239   1.000
    O16     O    0.29732   0.87035   0.00736   1.000
    Zr17    Zr   0.79762   0.70156   0.00569   1.000
    O18     O    0.79773   0.53273   0.00239   1.000
    O19     O    0.79731   0.87035   0.00736   1.000
    O20     O    0.61752   0.29837   0.13109   1.000
    O21     O    0.61801   0.29740   0.85802   1.000
    O22     O    0.47717   0.29936   0.13069   1.000
    O23     O    0.47761   0.29741   0.85758   1.000
    O24     O    0.97761   0.29741   0.85758   1.000
    O25     O    0.97718   0.29936   0.13069   1.000
    O26     O    0.11802   0.29740   0.85802   1.000
    O27     O    0.11753   0.29837   0.13109   1.000
    O28     O    0.36801   0.70259   0.14193   1.000
    O29     O    0.36752   0.70162   0.86887   1.000
    O30     O    0.72716   0.70064   0.86927   1.000
    O31     O    0.72760   0.70259   0.14237   1.000
    O32     O    0.22760   0.70259   0.14237   1.000
    O33     O    0.22717   0.70064   0.86927   1.000
    O34     O    0.86751   0.70162   0.86887   1.000
    O35     O    0.86800   0.70259   0.14193   1.000
loop_
    _geom_bond_atom_site_label_1
    _geom_bond_atom_site_label_2
    _geom_bond_distance
    _geom_bond_site_symmetry_2
    _ccdc_geom_bond_type
    Zr8    O9        2.35404      .   S
    N5     O9        4.63128      .   S
    Zr8    O10       2.35695      .   S
    N5     O10       4.63477  1_565   S
    Zr11   O12       2.35695      .   S
    N4     O12       4.63477  1_565   S
    Zr11   O13       2.35404      .   S
    N4     O13       4.63127      .   S
    Zr14   O15       2.35462      .   S
    N6     O15       4.63254      .   S
    Zr14   O16       2.35642      .   S
    N6     O16       4.63368  1_545   S
    Zr17   O18       2.35462      .   S
    N7     O18       4.63255      .   S
    Zr17   O19       2.35642      .   S
    N7     O19       4.63368  1_545   S
    Zr11   O20       2.70411  1_556   S
    N0     O20       7.10392      .   S
    Zr11   O21       2.70231      .   S
    N0     O21       7.09839      .   S
    Zr11   O22       2.70559  1_556   S
    N1     O22       7.10573      .   S
    Zr11   O23       2.70300      .   S
    N1     O23       7.10173      .   S
    Zr8    O24       2.70309  1_455   S
    N0     O24       7.10187      .   S
    Zr8    O25       2.70567  1_456   S
    N0     O25       7.10586      .   S
    Zr8    O26       2.70231      .   S
    N1     O26       7.09838      .   S
    Zr8    O27       2.70411  1_556   S
    N1     O27       7.10392      .   S
    N3     O28       7.09879      .   S
    Zr14   O28       2.70242      .   S
    N3     O29       7.10357      .   S
    Zr14   O29       2.70394  1_554   S
    N3     O30       7.10628      .   S
    Zr17   O30       2.70584  1_554   S
    N3     O31       7.10125      .   S
    Zr17   O31       2.70271      .   S
    Zr14   O32       2.70268      .   S
    N2     O32       7.10137      .   S
    Zr14   O33       2.70586  1_554   S
    N2     O33       7.10635      .   S
    N2     O34       7.10366  1_455   S
    Zr17   O34       2.70397  1_554   S
    N2     O35       7.09887  1_455   S
    Zr17   O35       2.70245      .   S
