# CIF file generated by openbabel 2.4.90, see http://openbabel.sf.net
data_I
_chemical_name_common ''
_cell_length_a 13.687
_cell_length_b 17.852
_cell_length_c 21.787
_cell_angle_alpha 89.91
_cell_angle_beta 89.977
_cell_angle_gamma 89.998
_space_group_name_H-M_alt 'P 1'
_space_group_name_Hall 'P 1'
loop_
    _symmetry_equiv_pos_as_xyz
    x,y,z
loop_
    _atom_site_label
    _atom_site_type_symbol
    _atom_site_fract_x
    _atom_site_fract_y
    _atom_site_fract_z
    _atom_site_occupancy
    Mc0     Mc   0.59799   0.00412   0.62827   1.000
    Mc1     Mc   0.00313   0.01173   0.63356   1.000
    Mc2     Mc   0.80198   0.10108   0.42176   1.000
    Mc3     Mc   0.46803   0.77681   0.59284   1.000
    Mc4     Mc   0.88177   0.77199   0.58304   1.000
    Mc5     Mc   0.66601   0.85778   0.38150   1.000
    Mc6     Mc   0.53255   0.22571   0.09175   1.000
    Mc7     Mc   0.33249   0.14421   0.88199   1.000
    Mc8     Mc   0.11781   0.23136   0.08297   1.000
    Mc9     Mc   0.03138   0.27655   0.59324   1.000
    Mc10    Mc   0.61795   0.27067   0.58319   1.000
    Mc11    Mc   0.83385   0.35756   0.38231   1.000
    Mc12    Mc   0.09791   0.49793   0.12730   1.000
    Mc13    Mc   0.30457   0.40119   0.92201   1.000
    Mc14    Mc   0.50368   0.49056   0.13389   1.000
    Mc15    Mc   0.16561   0.64454   0.88187   1.000
    Mc16    Mc   0.96811   0.72568   0.09277   1.000
    Mc17    Mc   0.38265   0.73062   0.08258   1.000
    Mc18    Mc   0.69759   0.60121   0.42185   1.000
    Mc19    Mc   0.49634   0.51178   0.63340   1.000
    Mc20    Mc   0.90170   0.50434   0.62796   1.000
    Mc21    Mc   0.40209   0.99708   0.12653   1.000
    Mc22    Mc   0.19458   0.90070   0.92212   1.000
    Mc23    Mc   0.99237   0.99061   0.13428   1.000
