# CIF file generated by openbabel 2.4.90, see http://openbabel.sf.net
data_I
_chemical_name_common ''
_cell_length_a 13.019
_cell_length_b 12.951
_cell_length_c 21.117
_cell_angle_alpha 85.765
_cell_angle_beta 85.797
_cell_angle_gamma 69.843
_space_group_name_H-M_alt 'P 1'
_space_group_name_Hall 'P 1'
loop_
    _symmetry_equiv_pos_as_xyz
    x,y,z
loop_
    _atom_site_label
    _atom_site_type_symbol
    _atom_site_fract_x
    _atom_site_fract_y
    _atom_site_fract_z
    _atom_site_occupancy
    Cd0     Cd   0.56834   0.55906   0.08798   1.000
    Cd1     Cd   0.93722   0.92756   0.31800   1.000
    Cd2     Cd   0.44160   0.43101   0.41196   1.000
    Cd3     Cd   0.92836   0.93647   0.81877   1.000
    Cd4     Cd   0.43170   0.44093   0.91199   1.000
    Cd5     Cd   0.06282   0.07241   0.68108   1.000
    Cd6     Cd   0.55844   0.56896   0.58800   1.000
    Cd7     Cd   0.07167   0.06351   0.18121   1.000
    C8      C    0.69599   0.31131   0.05103   1.000
    C9      C    0.10554   0.08770   0.31640   1.000
    C10     C    0.66321   0.28369   0.95993   1.000
    C11     C    0.31774   0.29945   0.40489   1.000
    C12     C    0.12036   0.10563   0.55413   1.000
    C13     C    0.68808   0.30349   0.44930   1.000
    C14     C    0.91388   0.89267   0.18361   1.000
    C15     C    0.71557   0.33644   0.54038   1.000
    C16     C    0.70052   0.68222   0.09505   1.000
    C17     C    0.89474   0.87932   0.94581   1.000
    C18     C    0.30404   0.68867   0.94895   1.000
    C19     C    0.89450   0.91228   0.68358   1.000
    C20     C    0.33682   0.71629   0.04005   1.000
    C21     C    0.68229   0.70053   0.59508   1.000
    C22     C    0.87968   0.89434   0.44585   1.000
    C23     C    0.31196   0.69648   0.55067   1.000
    C24     C    0.08616   0.10729   0.81636   1.000
    C25     C    0.28447   0.66353   0.45959   1.000
    C26     C    0.29952   0.31775   0.90492   1.000
    C27     C    0.10530   0.12065   0.05410   1.000
    N28     N    0.60660   0.39766   0.03473   1.000
    N29     N    0.73433   0.23734   0.00581   1.000
    N30     N    0.58538   0.37972   0.97550   1.000
    N31     N    0.60158   0.39258   0.46583   1.000
    N32     N    0.76206   0.26542   0.49438   1.000
    N33     N    0.61940   0.41392   0.52505   1.000
    N34     N    0.39343   0.60232   0.96520   1.000
    N35     N    0.26570   0.76263   0.99417   1.000
    N36     N    0.41465   0.62026   0.02448   1.000
    N37     N    0.39846   0.60739   0.53414   1.000
    N38     N    0.23799   0.73454   0.50560   1.000
    N39     N    0.38064   0.58605   0.47492   1.000
    O40     O    0.10241   0.14583   0.26425   1.000
    O41     O    0.08053   0.00065   0.32210   1.000
    O42     O    0.05750   0.04870   0.56437   1.000
    O43     O    0.34655   0.32868   0.34974   1.000
    O44     O    0.34676   0.32853   0.45600   1.000
    O45     O    0.15527   0.14308   0.59930   1.000
    O46     O    0.85716   0.89400   0.23601   1.000
    O47     O    0.99970   0.91909   0.17775   1.000
    O48     O    0.95168   0.94219   0.93560   1.000
    O49     O    0.67097   0.65378   0.15022   1.000
    O50     O    0.67140   0.65322   0.04396   1.000
    O51     O    0.85717   0.84458   0.90055   1.000
    O52     O    0.89763   0.85415   0.73573   1.000
    O53     O    0.91950   0.99933   0.67780   1.000
    O54     O    0.94253   0.95128   0.43560   1.000
    O55     O    0.65348   0.67130   0.65024   1.000
    O56     O    0.65327   0.67145   0.54398   1.000
    O57     O    0.84477   0.85689   0.40062   1.000
    O58     O    0.14289   0.10596   0.76397   1.000
    O59     O    0.00034   0.08088   0.82222   1.000
    O60     O    0.04836   0.05779   0.06438   1.000
    O61     O    0.32906   0.34619   0.84976   1.000
    O62     O    0.32864   0.34676   0.95601   1.000
    O63     O    0.14286   0.15540   0.09942   1.000
    Ts64    Ts   0.61583   0.50426   0.10732   1.000
    Ts65    Ts   0.51652   0.60947   0.10577   1.000
    Ts66    Ts   0.88787   0.98769   0.31896   1.000
    Ts67    Ts   0.99162   0.87185   0.32056   1.000
    Ts68    Ts   0.49621   0.38351   0.39261   1.000
    Ts69    Ts   0.39121   0.48300   0.39407   1.000
    Ts70    Ts   0.87266   0.99108   0.82098   1.000
    Ts71    Ts   0.98827   0.88723   0.81955   1.000
    Ts72    Ts   0.48351   0.39051   0.89420   1.000
    Ts73    Ts   0.38420   0.49572   0.89255   1.000
    Ts74    Ts   0.00842   0.12812   0.67882   1.000
    Ts75    Ts   0.11218   0.01227   0.68041   1.000
    Ts76    Ts   0.60883   0.51697   0.60588   1.000
    Ts77    Ts   0.50383   0.61646   0.60735   1.000
    Ts78    Ts   0.01176   0.11275   0.18043   1.000
    Ts79    Ts   0.12738   0.00890   0.17899   1.000
    Ts80    Ts   0.71324   0.30951   0.07077   1.000
    Og81    Og   0.11855   0.10025   0.33521   1.000
    Ts82    Ts   0.66486   0.26863   0.93946   1.000
    Og83    Og   0.29422   0.27587   0.40800   1.000
    Og84    Og   0.13126   0.11446   0.53172   1.000
    Ts85    Ts   0.69000   0.28626   0.42951   1.000
    Og86    Og   0.90119   0.87982   0.16478   1.000
    Ts87    Ts   0.73068   0.33491   0.56080   1.000
    Og88    Og   0.72424   0.70560   0.09193   1.000
    Og89    Og   0.88594   0.86835   0.96822   1.000
    Ts90    Ts   0.28678   0.69046   0.92921   1.000
    Og91    Og   0.88148   0.89973   0.66477   1.000
    Ts92    Ts   0.33517   0.73135   0.06052   1.000
    Og93    Og   0.70581   0.72411   0.59197   1.000
    Og94    Og   0.86877   0.88552   0.46826   1.000
    Ts95    Ts   0.31004   0.71370   0.57046   1.000
    Og96    Og   0.09885   0.12015   0.83517   1.000
    Ts97    Ts   0.26936   0.66506   0.43917   1.000
    Og98    Og   0.27580   0.29438   0.90804   1.000
    Og99    Og   0.11410   0.13163   0.03171   1.000
loop_
    _geom_bond_atom_site_label_1
    _geom_bond_atom_site_label_2
    _geom_bond_distance
    _geom_bond_site_symmetry_2
    _ccdc_geom_bond_type
    N29    C8        1.34697      .   S
    N29    C10       1.34865  1_554   S
    N36    C20       1.35086      .   S
    N36    Cd0       2.36067      .   S
    N36    N34       1.35471  1_554   S
    N28    C8        1.35218      .   S
    N28    Cd0       2.33002      .   S
    N28    N30       1.35370  1_554   S
    C20    N35       1.34868  1_554   S
    O50    Cd0       2.22014      .   S
    O50    C16       1.29104      .   S
    C27    O60       1.27509      .   S
    C27    O63       1.28118      .   S
    O60    Cd7       2.51723      .   S
    C16    O49       1.26866      .   S
    O63    Cd7       2.34104      .   S
    O47    Cd7       2.37063  1_665   S
    O47    C14       1.27179      .   S
    Cd7    O40       2.24604      .   S
    C14    O46       1.28232      .   S
    O46    Cd1       2.22733      .   S
    O40    C9        1.28227      .   S
    C9     O41       1.27215      .   S
    Cd1    O41       2.37436  1_665   S
    Cd1    O57       2.35499      .   S
    Cd1    O54       2.53351      .   S
    O43    C11       1.26846      .   S
    O57    C22       1.27988      .   S
    C11    O44       1.29124      .   S
    Cd2    O44       2.22032      .   S
    Cd2    N31       2.32998      .   S
    Cd2    N39       2.36018      .   S
    O54    C22       1.27533      .   S
    C13    N31       1.35199      .   S
    C13    N32       1.34704      .   S
    C25    N39       1.35088      .   S
    C25    N38       1.34842      .   S
    N31    N33       1.35346      .   S
    N39    N37       1.35345      .   S
    N32    C15       1.34827      .   S
    N38    C23       1.34688      .   S
    N33    C15       1.35089      .   S
    N33    Cd6       2.36007      .   S
    N37    C23       1.35198      .   S
    N37    Cd6       2.32987      .   S
    O56    Cd6       2.22019      .   S
    O56    C21       1.29105      .   S
    C12    O42       1.27532      .   S
    C12    O45       1.27886      .   S
    O42    Cd5       2.51487      .   S
    C21    O55       1.26864      .   S
    O45    Cd5       2.34308      .   S
    O53    Cd5       2.37229  1_665   S
    O53    C19       1.27217      .   S
    Cd5    O58       2.24306      .   S
    C19    O52       1.28227      .   S
    O52    Cd3       2.24604      .   S
    O58    C24       1.28217      .   S
    C24    O59       1.27178      .   S
    Cd3    O59       2.37056  1_665   S
    Cd3    O51       2.34087      .   S
    Cd3    O48       2.51723      .   S
    O61    C26       1.26845      .   S
    O51    C17       1.28017      .   S
    C26    O62       1.29106      .   S
    Cd4    O62       2.22013      .   S
    Cd4    N34       2.32957      .   S
    Cd4    N30       2.36077      .   S
    O48    C17       1.27496      .   S
    C18    N34       1.35192      .   S
    C18    N35       1.34696      .   S
    C10    N30       1.35087      .   S
    Cd0    Ts64      0.86285      .   S
    Cd0    Ts65      0.84739      .   S
    Cd1    Ts66      0.82179      .   S
    Cd1    Ts67      0.82028      .   S
    Cd2    Ts68      0.86252      .   S
    Cd2    Ts69      0.84897      .   S
    Cd3    Ts70      0.82144      .   S
    Cd3    Ts71      0.82024      .   S
    Cd4    Ts72      0.84736      .   S
    Cd4    Ts73      0.86381      .   S
    Cd5    Ts74      0.81990      .   S
    Cd5    Ts75      0.82158      .   S
    Cd6    Ts76      0.84891      .   S
    Cd6    Ts77      0.86258      .   S
    Cd7    Ts78      0.82027      .   S
    Cd7    Ts79      0.82145      .   S
    C8     Ts80      0.48312      .   S
    C9     Og81      0.50129      .   S
    C10    Ts82      0.48331      .   S
    C11    Og83      0.49984      .   S
    C12    Og84      0.50058      .   S
    C13    Ts85      0.48310      .   S
    C14    Og86      0.50139      .   S
    C15    Ts87      0.48331      .   S
    C16    Og88      0.49983      .   S
    C17    Og89      0.50067      .   S
    C18    Ts90      0.48313      .   S
    C19    Og91      0.50135      .   S
    C20    Ts92      0.48325      .   S
    C21    Og93      0.49984      .   S
    C22    Og94      0.50058      .   S
    C23    Ts95      0.48316      .   S
    C24    Og96      0.50116      .   S
    C25    Ts97      0.48331      .   S
    C26    Og98      0.49983      .   S
    C27    Og99      0.50029      .   S
