# CIF file generated by openbabel 2.4.90, see http://openbabel.sf.net
data_I
_chemical_name_common ''
_cell_length_a 14.418
_cell_length_b 14.304
_cell_length_c 15.436
_cell_angle_alpha 89.978
_cell_angle_beta 90
_cell_angle_gamma 89.985
_space_group_name_H-M_alt 'P 1'
_space_group_name_Hall 'P 1'
loop_
    _symmetry_equiv_pos_as_xyz
    x,y,z
loop_
    _atom_site_label
    _atom_site_type_symbol
    _atom_site_fract_x
    _atom_site_fract_y
    _atom_site_fract_z
    _atom_site_occupancy
    N0      N    0.24997   0.50046   0.25042   1.000
    N1      N    0.00000   0.25012   0.74999   1.000
    N2      N    0.50000   0.25031   0.24999   1.000
    N3      N    0.00000   0.74996   0.25001   1.000
    N4      N    0.50000   0.25017   0.74994   1.000
    N5      N    0.25012   0.00048   0.24955   1.000
    N6      N    0.74998   0.00001   0.24498   1.000
    N7      N    0.74993   0.50001   0.74998   1.000
    N8      N    0.74997   0.00001   0.74996   1.000
    N9      N    0.74994   0.50001   0.24997   1.000
    N10     N    0.00000   0.25026   0.24995   1.000
    Zr11    Zr   0.25000   0.25067   0.24996   1.000
    O12     O    0.16837   0.25053   0.24996   1.000
    O13     O    0.33164   0.25055   0.24997   1.000
    O14     O    0.24998   0.33216   0.25013   1.000
    O15     O    0.25005   0.16905   0.24980   1.000
    Zr16    Zr   0.25000   0.25053   0.74985   1.000
    O17     O    0.33164   0.25040   0.74989   1.000
    O18     O    0.16837   0.25038   0.74990   1.000
    Zr19    Zr   0.22247   0.72202   0.18835   1.000
    O20     O    0.23623   0.65461   0.21935   1.000
    O21     O    0.23626   0.81774   0.21902   1.000
    O22     O    0.15460   0.73601   0.21920   1.000
    Zr23    Zr   0.74999   0.74959   0.74997   1.000
    O24     O    0.74997   0.66818   0.74997   1.000
    O25     O    0.74998   0.83130   0.74997   1.000
    Zr26    Zr   0.74999   0.25043   0.74999   1.000
    O27     O    0.74997   0.33183   0.74999   1.000
    O28     O    0.83163   0.25032   0.74999   1.000
    O29     O    0.74999   0.16872   0.74998   1.000
    O30     O    0.66835   0.25032   0.74997   1.000
    Zr31    Zr   0.74999   0.74959   0.24997   1.000
    O32     O    0.74998   0.66818   0.24997   1.000
    O33     O    0.74998   0.83130   0.24871   1.000
    O34     O    0.83163   0.74971   0.24998   1.000
    Zr35    Zr   0.74999   0.25042   0.25000   1.000
    O36     O    0.74999   0.16872   0.24250   1.000
    O37     O    0.66835   0.25036   0.25000   1.000
    O38     O    0.83163   0.25035   0.24998   1.000
    O39     O    0.74997   0.33183   0.24998   1.000
loop_
    _geom_bond_atom_site_label_1
    _geom_bond_atom_site_label_2
    _geom_bond_distance
    _geom_bond_site_symmetry_2
    _ccdc_geom_bond_type
    Zr11   O12       1.17703      .   S
    N10    O12       2.42745      .   S
    Zr11   O13       1.17704      .   S
    N2     O13       2.42742      .   S
    Zr11   O14       1.16553      .   S
    N0     O14       2.40742      .   S
    Zr11   O15       1.16760      .   S
    N5     O15       2.41121      .   S
    Zr16   O17       1.17703      .   S
    N4     O17       2.42740      .   S
    Zr16   O18       1.17702      .   S
    N1     O18       2.42744      .   S
    Zr19   O20       1.09440      .   S
    N0     O20       2.26496      .   S
    Zr19   O21       1.46243      .   S
    N5     O21       2.66381  1_545   S
    Zr19   O22       1.10645      .   S
    N3     O22       2.28784      .   S
    Zr23   O24       1.16446      .   S
    N7     O24       2.40556      .   S
    Zr23   O25       1.16876      .   S
    N8     O25       2.41321  1_545   S
    Zr26   O27       1.16448      .   S
    N7     O27       2.40559      .   S
    Zr26   O28       1.17712      .   S
    N1     O28       2.42759  1_455   S
    Zr26   O29       1.16875      .   S
    N8     O29       2.41319      .   S
    Zr26   O30       1.17703      .   S
    N4     O30       2.42737      .   S
    Zr31   O32       1.16445      .   S
    N9     O32       2.40553      .   S
    Zr31   O33       1.16893      .   S
    N6     O33       2.41389  1_545   S
    Zr31   O34       1.17711      .   S
    N3     O34       2.42756  1_455   S
    Zr35   O36       1.17450      .   S
    N6     O36       2.41345      .   S
    Zr35   O37       1.17701      .   S
    N2     O37       2.42734      .   S
    Zr35   O38       1.17712      .   S
    N10    O38       2.42759  1_455   S
    Zr35   O39       1.16451      .   S
    N9     O39       2.40563      .   S
