# CIF file generated by openbabel 2.4.90, see http://openbabel.sf.net
data_I
_chemical_name_common ''
_cell_length_a 20.521
_cell_length_b 16.616
_cell_length_c 19.798
_cell_angle_alpha 89.965
_cell_angle_beta 101.651
_cell_angle_gamma 90.041
_space_group_name_H-M_alt 'P 1'
_space_group_name_Hall 'P 1'
loop_
    _symmetry_equiv_pos_as_xyz
    x,y,z
loop_
    _atom_site_label
    _atom_site_type_symbol
    _atom_site_fract_x
    _atom_site_fract_y
    _atom_site_fract_z
    _atom_site_occupancy
    Zr0     Zr   0.25862   0.34010   0.37986   1.000
    Zr1     Zr   0.75862   0.34011   0.37988   1.000
    Zr2     Zr   0.36370   0.41981   0.48070   1.000
    Zr3     Zr   0.86370   0.41981   0.48070   1.000
    Zr4     Zr   0.24135   0.84001   0.62002   1.000
    Zr5     Zr   0.74135   0.84002   0.62005   1.000
    Zr6     Zr   0.13635   0.91970   0.51912   1.000
    Zr7     Zr   0.63635   0.91971   0.51915   1.000
    Zr8     Zr   0.31131   0.29003   0.53260   1.000
    Zr9     Zr   0.81135   0.29002   0.53260   1.000
    Zr10    Zr   0.21833   0.02432   0.58570   1.000
    Zr11    Zr   0.71834   0.02433   0.58572   1.000
    Zr12    Zr   0.13875   0.32979   0.34007   1.000
    Zr13    Zr   0.63875   0.32978   0.34009   1.000
    Zr14    Zr   0.40166   0.34237   0.36724   1.000
    Zr15    Zr   0.90166   0.34242   0.36723   1.000
    Zr16    Zr   0.18877   0.79003   0.46728   1.000
    Zr17    Zr   0.68875   0.79002   0.46731   1.000
    Zr18    Zr   0.28174   0.52446   0.41428   1.000
    Zr19    Zr   0.78173   0.52447   0.41430   1.000
    Zr20    Zr   0.36122   0.82981   0.65980   1.000
    Zr21    Zr   0.86123   0.82981   0.65983   1.000
    Zr22    Zr   0.09826   0.84191   0.63242   1.000
    Zr23    Zr   0.59827   0.84196   0.63249   1.000
    Zr24    Zr   0.28349   0.27788   0.47037   1.000
    Zr25    Zr   0.78351   0.27789   0.47038   1.000
    Zr26    Zr   0.34808   0.35132   0.55479   1.000
    Zr27    Zr   0.84813   0.35130   0.55480   1.000
    Zr28    Zr   0.17889   0.02488   0.52608   1.000
    Zr29    Zr   0.67889   0.02489   0.52608   1.000
    Zr30    Zr   0.22495   0.96375   0.62567   1.000
    Zr31    Zr   0.72495   0.96376   0.62567   1.000
    Zr32    Zr   0.18151   0.30555   0.30460   1.000
    Zr33    Zr   0.68152   0.30555   0.30469   1.000
    Zr34    Zr   0.15805   0.36147   0.39899   1.000
    Zr35    Zr   0.65805   0.36147   0.39901   1.000
    Zr36    Zr   0.42247   0.38185   0.42384   1.000
    Zr37    Zr   0.92248   0.38186   0.42385   1.000
    Zr38    Zr   0.34270   0.31818   0.34507   1.000
    Zr39    Zr   0.84268   0.31830   0.34503   1.000
    Zr40    Zr   0.21662   0.77789   0.52949   1.000
    Zr41    Zr   0.71659   0.77788   0.52953   1.000
    Zr42    Zr   0.15201   0.85129   0.44506   1.000
    Zr43    Zr   0.65199   0.85129   0.44510   1.000
    Zr44    Zr   0.32130   0.52499   0.47386   1.000
    Zr45    Zr   0.82129   0.52499   0.47390   1.000
    Zr46    Zr   0.27503   0.46395   0.37436   1.000
    Zr47    Zr   0.77502   0.46396   0.37439   1.000
    Zr48    Zr   0.31843   0.80555   0.69520   1.000
    Zr49    Zr   0.81844   0.80556   0.69525   1.000
    Zr50    Zr   0.34196   0.86150   0.60089   1.000
    Zr51    Zr   0.84196   0.86150   0.60089   1.000
    Zr52    Zr   0.07755   0.88182   0.57601   1.000
    Zr53    Zr   0.57756   0.88182   0.57606   1.000
    Zr54    Zr   0.15707   0.81710   0.65430   1.000
    Zr55    Zr   0.65709   0.81719   0.65440   1.000
    O56     O    0.16013   0.31767   0.32233   1.000
    O57     O    0.22007   0.32282   0.34223   1.000
    O58     O    0.66013   0.31766   0.32239   1.000
    O59     O    0.72007   0.32283   0.34228   1.000
    O60     O    0.14840   0.34563   0.36953   1.000
    O61     O    0.64840   0.34563   0.36955   1.000
    O62     O    0.87217   0.33036   0.35613   1.000
    O63     O    0.80065   0.32921   0.36245   1.000
    O64     O    0.37218   0.33027   0.35615   1.000
    O65     O    0.30066   0.32914   0.36246   1.000
    O66     O    0.91207   0.36214   0.39554   1.000
    O67     O    0.41206   0.36211   0.39554   1.000
    O68     O    0.26683   0.40202   0.37711   1.000
    O69     O    0.27839   0.49421   0.39432   1.000
    O70     O    0.76682   0.40204   0.37713   1.000
    O71     O    0.77838   0.49422   0.39434   1.000
    O72     O    0.20833   0.35079   0.38942   1.000
    O73     O    0.27106   0.30899   0.42511   1.000
    O74     O    0.70833   0.35079   0.38944   1.000
    O75     O    0.77106   0.30900   0.42513   1.000
    O76     O    0.30152   0.52473   0.44407   1.000
    O77     O    0.80151   0.52473   0.44410   1.000
    O78     O    0.39308   0.40083   0.45227   1.000
    O79     O    0.89309   0.40083   0.45227   1.000
    O80     O    0.17039   0.82066   0.45617   1.000
    O81     O    0.14418   0.88550   0.48209   1.000
    O82     O    0.67037   0.82066   0.45620   1.000
    O83     O    0.64417   0.88550   0.48212   1.000
    O84     O    0.20270   0.78396   0.49838   1.000
    O85     O    0.70267   0.78395   0.49842   1.000
    O86     O    0.29740   0.28396   0.50148   1.000
    O87     O    0.79743   0.28396   0.50149   1.000
    O88     O    0.34250   0.47240   0.47728   1.000
    O89     O    0.84249   0.47240   0.47730   1.000
    O90     O    0.35589   0.38556   0.51774   1.000
    O91     O    0.85592   0.38556   0.51775   1.000
    O92     O    0.15762   0.97229   0.52260   1.000
    O93     O    0.10695   0.90076   0.54756   1.000
    O94     O    0.65762   0.97230   0.52261   1.000
    O95     O    0.60696   0.90077   0.54760   1.000
    O96     O    0.19861   0.02460   0.55589   1.000
    O97     O    0.69861   0.02461   0.55590   1.000
    O98     O    0.22898   0.80895   0.57475   1.000
    O99     O    0.72897   0.80895   0.57479   1.000
    O100    O    0.32969   0.32068   0.54369   1.000
    O101    O    0.82974   0.32066   0.54370   1.000
    O102    O    0.08791   0.86187   0.60421   1.000
    O103    O    0.58792   0.86189   0.60427   1.000
    O104    O    0.22164   0.99404   0.60568   1.000
    O105    O    0.72164   0.99404   0.60569   1.000
    O106    O    0.29166   0.85076   0.61045   1.000
    O107    O    0.35159   0.84566   0.63034   1.000
    O108    O    0.79165   0.85076   0.61047   1.000
    O109    O    0.85159   0.84565   0.63036   1.000
    O110    O    0.23315   0.90188   0.62284   1.000
    O111    O    0.19921   0.82856   0.63716   1.000
    O112    O    0.27989   0.82278   0.65761   1.000
    O113    O    0.73315   0.90189   0.62286   1.000
    O114    O    0.69922   0.82861   0.63722   1.000
    O115    O    0.77990   0.82279   0.65765   1.000
    O116    O    0.12767   0.82951   0.64336   1.000
    O117    O    0.62768   0.82958   0.64344   1.000
    O118    O    0.33983   0.81768   0.67750   1.000
    O119    O    0.83984   0.81768   0.67754   1.000
    N120    N    0.69912   0.66990   0.35231   1.000
    O121    O    0.69621   0.71459   0.39686   1.000
    O122    O    0.73088   0.61570   0.37745   1.000
    N123    N    0.50129   0.80950   0.71629   1.000
    O124    O    0.44933   0.81711   0.69540   1.000
    O125    O    0.53716   0.82140   0.68504   1.000
    O126    O    0.64307   0.70151   0.17330   1.000
    N127    N    0.49867   0.30955   0.28361   1.000
    O128    O    0.55063   0.31712   0.30450   1.000
    O129    O    0.46280   0.32157   0.31480   1.000
    N130    N    0.30089   0.16986   0.64770   1.000
    O131    O    0.30382   0.21457   0.60310   1.000
    O132    O    0.26915   0.11561   0.62256   1.000
    O133    O    0.35693   0.20149   0.82650   1.000
    N134    N    0.19914   0.66990   0.35226   1.000
    O135    O    0.23089   0.61569   0.37741   1.000
    O136    O    0.19623   0.71459   0.39682   1.000
    N137    N    0.00130   0.80950   0.71617   1.000
    O138    O    0.94934   0.81711   0.69535   1.000
    O139    O    0.03716   0.82138   0.68495   1.000
    O140    O    0.06146   0.75921   0.90490   1.000
    N141    N    0.99867   0.30956   0.28360   1.000
    O142    O    0.05063   0.31714   0.30448   1.000
    O143    O    0.96279   0.32161   0.31479   1.000
    N144    N    0.80092   0.16985   0.64770   1.000
    O145    O    0.80385   0.21456   0.60311   1.000
    O146    O    0.76917   0.11561   0.62257   1.000
    O147    O    0.93852   0.25919   0.09483   1.000
loop_
    _geom_bond_atom_site_label_1
    _geom_bond_atom_site_label_2
    _geom_bond_distance
    _geom_bond_site_symmetry_2
    _ccdc_geom_bond_type
    Zr32   O56       0.64713      .   S
    Zr12   O56       0.64713      .   S
    Zr32   O57       1.01254      .   S
    Zr0    O57       1.01254      .   S
    Zr33   O58       0.64667      .   S
    Zr13   O58       0.64667      .   S
    Zr33   O59       1.01214      .   S
    Zr1    O59       1.01214      .   S
    Zr12   O60       0.63415      .   S
    Zr34   O60       0.63415      .   S
    Zr13   O61       0.63415      .   S
    Zr35   O61       0.63415      .   S
    Zr39   O62       0.63312      .   S
    Zr15   O62       0.63312      .   S
    Zr39   O63       1.00811      .   S
    Zr1    O63       1.00811      .   S
    Zr38   O64       0.63311      .   S
    Zr14   O64       0.63311      .   S
    Zr38   O65       1.00812      .   S
    Zr0    O65       1.00812      .   S
    Zr15   O66       0.64719      .   S
    Zr37   O66       0.64719      .   S
    Zr14   O67       0.64721      .   S
    Zr36   O67       0.64721      .   S
    Zr46   O68       1.04565      .   S
    Zr0    O68       1.04565      .   S
    Zr46   O69       0.63473      .   S
    Zr18   O69       0.63473      .   S
    Zr47   O70       1.04567      .   S
    Zr1    O70       1.04567      .   S
    Zr47   O71       0.63463      .   S
    Zr19   O71       0.63463      .   S
    Zr0    O72       1.10063      .   S
    Zr34   O72       1.10063      .   S
    Zr0    O73       1.02094      .   S
    Zr24   O73       1.02094      .   S
    Zr1    O74       1.10066      .   S
    Zr35   O74       1.10066      .   S
    Zr1    O75       1.02089      .   S
    Zr25   O75       1.02089      .   S
    Zr18   O76       0.64489      .   S
    Zr44   O76       0.64489      .   S
    Zr19   O77       0.64505      .   S
    Zr45   O77       0.64505      .   S
    Zr36   O78       0.95782      .   S
    Zr2    O78       0.95782      .   S
    Zr37   O79       0.95781      .   S
    Zr3    O79       0.95781      .   S
    Zr42   O80       0.64526      .   S
    Zr16   O80       0.64526      .   S
    Zr42   O81       0.96671      .   S
    Zr6    O81       0.96671      .   S
    Zr43   O82       0.64523      .   S
    Zr17   O82       0.64523      .   S
    Zr43   O83       0.96662      .   S
    Zr7    O83       0.96662      .   S
    Zr16   O84       0.63242      .   S
    Zr40   O84       0.63242      .   S
    Zr17   O85       0.63250      .   S
    Zr41   O85       0.63250      .   S
    Zr24   O86       0.63257      .   S
    Zr8    O86       0.63257      .   S
    Zr25   O87       0.63252      .   S
    Zr9    O87       0.63252      .   S
    Zr44   O88       0.97268      .   S
    Zr2    O88       0.97268      .   S
    Zr45   O89       0.97269      .   S
    Zr3    O89       0.97269      .   S
    Zr2    O90       0.96650      .   S
    Zr26   O90       0.96650      .   S
    Zr3    O91       0.96656      .   S
    Zr27   O91       0.96656      .   S
    Zr6    O92       0.97268      .   S
    Zr28   O92       0.97268  1_545   S
    Zr6    O93       0.95758      .   S
    Zr52   O93       0.95758      .   S
    Zr7    O94       0.97270      .   S
    Zr29   O94       0.97270  1_545   S
    Zr7    O95       0.95762      .   S
    Zr53   O95       0.95762      .   S
    Zr28   O96       0.64472      .   S
    Zr10   O96       0.64472      .   S
    Zr29   O97       0.64490      .   S
    Zr11   O97       0.64490      .   S
    Zr40   O98       1.02099      .   S
    Zr4    O98       1.02099      .   S
    Zr41   O99       1.02096      .   S
    Zr5    O99       1.02096      .   S
    Zr8    O100      0.64519      .   S
    Zr26   O100      0.64519      .   S
    Zr9    O101      0.64521      .   S
    Zr27   O101      0.64521      .   S
    Zr52   O102      0.64717      .   S
    Zr22   O102      0.64717      .   S
    Zr53   O103      0.64717      .   S
    Zr23   O103      0.64717      .   S
    Zr10   O104      0.63508  1_545   S
    Zr30   O104      0.63508      .   S
    Zr11   O105      0.63494  1_545   S
    Zr31   O105      0.63494      .   S
    Zr50   O106      1.10100      .   S
    Zr4    O106      1.10100      .   S
    Zr50   O107      0.63385      .   S
    Zr20   O107      0.63385      .   S
    Zr51   O108      1.10103      .   S
    Zr5    O108      1.10103      .   S
    Zr51   O109      0.63412      .   S
    Zr21   O109      0.63412      .   S
    Zr4    O110      1.04519      .   S
    Zr30   O110      1.04519      .   S
    Zr4    O111      1.00862      .   S
    Zr54   O111      1.00862      .   S
    Zr4    O112      1.01176      .   S
    Zr48   O112      1.01176      .   S
    Zr5    O113      1.04520      .   S
    Zr31   O113      1.04520      .   S
    Zr5    O114      1.00860      .   S
    Zr55   O114      1.00860      .   S
    Zr5    O115      1.01198      .   S
    Zr49   O115      1.01198      .   S
    Zr22   O116      0.63317      .   S
    Zr54   O116      0.63317      .   S
    Zr23   O117      0.63316      .   S
    Zr55   O117      0.63316      .   S
    Zr20   O118      0.64663      .   S
    Zr48   O118      0.64663      .   S
    Zr21   O119      0.64666      .   S
    Zr49   O119      0.64666      .   S
    N120   O121      1.16417      .   S
    Zr17   O121      1.90477      .   S
    N120   O122      1.16321      .   S
    Zr19   O122      1.90062      .   S
    N123   O124      1.07042      .   S
    Zr20   O124      1.81556      .   S
    N123   O125      1.07107      .   S
    Zr23   O125      1.81600      .   S
    N123   O126      9.10519  1_556   S
    N120   O126      3.53705      .   S
    N127   O128      1.07035      .   S
    Zr13   O128      1.81541      .   S
    N127   O129      1.07118      .   S
    Zr14   O129      1.81608      .   S
    N130   O131      1.16424      .   S
    Zr8    O131      1.90482      .   S
    N130   O132      1.16328      .   S
    Zr10   O132      1.90082      .   S
    N127   O133      9.10840  1_554   S
    N130   O133      3.53369      .   S
    N134   O135      1.16327      .   S
    Zr18   O135      1.90073      .   S
    N134   O136      1.16427      .   S
    Zr16   O136      1.90495      .   S
    N137   O138      1.07023  1_455   S
    Zr21   O138      1.81530      .   S
    N137   O139      1.07048      .   S
    Zr22   O139      1.81541      .   S
    N134   O140      8.86072  1_554   S
    N137   O140      3.78387      .   S
    N141   O142      1.07035  1_655   S
    Zr12   O142      1.81539      .   S
    N141   O143      1.07118      .   S
    Zr15   O143      1.81611      .   S
    N144   O145      1.16425      .   S
    Zr9    O145      1.90492      .   S
    N144   O146      1.16324      .   S
    Zr11   O146      1.90072      .   S
    N144   O147      8.85732  1_556   S
    N141   O147      3.78558      .   S
