# CIF file generated by openbabel 2.4.90, see http://openbabel.sf.net
data_I
_chemical_name_common ''
_cell_length_a 21.028
_cell_length_b 18.14
_cell_length_c 18.136
_cell_angle_alpha 119.953
_cell_angle_beta 89.998
_cell_angle_gamma 89.995
_space_group_name_H-M_alt 'P 1'
_space_group_name_Hall 'P 1'
loop_
    _symmetry_equiv_pos_as_xyz
    x,y,z
loop_
    _atom_site_label
    _atom_site_type_symbol
    _atom_site_fract_x
    _atom_site_fract_y
    _atom_site_fract_z
    _atom_site_occupancy
    N0      N    0.78230   0.46332   0.84241   1.000
    N1      N    0.61568   0.37876   0.53625   1.000
    N2      N    0.44894   0.15749   0.62079   1.000
    N3      N    0.94893   0.15740   0.62084   1.000
    N4      N    0.03227   0.53645   0.15754   1.000
    N5      N    0.53227   0.53659   0.15752   1.000
    N6      N    0.36571   0.62122   0.46366   1.000
    N7      N    0.86567   0.62112   0.46359   1.000
    N8      N    0.19893   0.84246   0.37919   1.000
    N9      N    0.69899   0.84245   0.37906   1.000
    N10     N    0.28227   0.46340   0.84246   1.000
    N11     N    0.11568   0.37879   0.53623   1.000
    Zr12    Zr   0.36793   0.39997   0.50460   1.000
    O13     O    0.34222   0.44012   0.61649   1.000
    O14     O    0.35316   0.47557   0.50185   1.000
    O15     O    0.36662   0.48541   0.50087   1.000
    O16     O    0.44069   0.41633   0.52818   1.000
    Zr17    Zr   0.45132   0.89523   0.40026   1.000
    O18     O    0.52405   0.88814   0.41669   1.000
    O19     O    0.44995   0.98448   0.48548   1.000
    O20     O    0.42562   0.82365   0.44043   1.000
    O21     O    0.43650   0.97362   0.47563   1.000
    Zr22    Zr   0.03471   0.49491   0.89518   1.000
    O23     O    0.03330   0.49888   0.98446   1.000
    O24     O    0.01985   0.49788   0.97361   1.000
    O25     O    0.00894   0.38316   0.82352   1.000
    O26     O    0.10739   0.47141   0.88813   1.000
    Zr27    Zr   0.78468   0.50480   0.10443   1.000
    O28     O    0.75895   0.61660   0.17618   1.000
    O29     O    0.85739   0.52836   0.11161   1.000
    O30     O    0.76985   0.50188   0.02610   1.000
    O31     O    0.78330   0.50086   0.01525   1.000
    Zr32    Zr   0.28473   0.50491   0.10480   1.000
    O33     O    0.26986   0.50196   0.02639   1.000
    O34     O    0.25894   0.61667   0.17649   1.000
    O35     O    0.35740   0.52847   0.11186   1.000
    O36     O    0.28331   0.50095   0.01553   1.000
    Zr37    Zr   0.70135   0.10471   0.59956   1.000
    O38     O    0.69997   0.01545   0.51435   1.000
    O39     O    0.67562   0.17628   0.55942   1.000
    O40     O    0.77405   0.11176   0.58313   1.000
    O41     O    0.68653   0.02631   0.52420   1.000
    Zr42    Zr   0.86794   0.39985   0.50453   1.000
    O43     O    0.94069   0.41626   0.52761   1.000
    O44     O    0.86661   0.48530   0.50079   1.000
    O45     O    0.84223   0.44001   0.61642   1.000
    O46     O    0.85315   0.47545   0.50177   1.000
    Zr47    Zr   0.20135   0.10472   0.59974   1.000
    O48     O    0.18650   0.02633   0.52436   1.000
    O49     O    0.17562   0.17632   0.55955   1.000
    O50     O    0.27405   0.11180   0.58325   1.000
    O51     O    0.19995   0.01547   0.51452   1.000
    Zr52    Zr   0.11791   0.60005   0.49543   1.000
    O53     O    0.10314   0.52445   0.49814   1.000
    O54     O    0.11660   0.51461   0.49913   1.000
    O55     O    0.19069   0.58369   0.47183   1.000
    O56     O    0.09221   0.55986   0.38353   1.000
    Zr57    Zr   0.61796   0.60000   0.49530   1.000
    O58     O    0.59223   0.55986   0.38345   1.000
    O59     O    0.60316   0.52442   0.49808   1.000
    O60     O    0.61662   0.51456   0.49905   1.000
    O61     O    0.69070   0.58360   0.47172   1.000
    Zr62    Zr   0.95138   0.89515   0.40031   1.000
    O63     O    0.02406   0.88811   0.41679   1.000
    O64     O    0.94997   0.98441   0.48553   1.000
    O65     O    0.92563   0.82358   0.44043   1.000
    O66     O    0.93652   0.97355   0.47568   1.000
    Zr67    Zr   0.53471   0.49508   0.89515   1.000
    O68     O    0.51985   0.49802   0.97357   1.000
    O69     O    0.50894   0.38330   0.82347   1.000
    O70     O    0.60740   0.47150   0.88808   1.000
    O71     O    0.53330   0.49903   0.98443   1.000
loop_
    _geom_bond_atom_site_label_1
    _geom_bond_atom_site_label_2
    _geom_bond_distance
    _geom_bond_site_symmetry_2
    _ccdc_geom_bond_type
    Zr12   O13       1.86132      .   S
    N10    O13       4.10279      .   S
    Zr12   O14       1.43095      .   S
    N6     O14       3.05900      .   S
    Zr12   O15       1.58505      .   S
    N6     O15       2.86082      .   S
    Zr12   O16       1.57648      .   S
    N1     O16       3.75827      .   S
    Zr17   O18       1.57559      .   S
    N9     O18       3.75754      .   S
    Zr17   O19       1.58493      .   S
    N2     O19       2.86034  1_545   S
    Zr17   O20       1.85827      .   S
    N6     O20       4.09817      .   S
    Zr17   O21       1.43066      .   S
    N2     O21       3.05874  1_545   S
    Zr22   O23       1.58470      .   S
    N4     O23       2.86042  1_554   S
    Zr22   O24       1.43069      .   S
    N4     O24       3.05857  1_554   S
    Zr22   O25       1.86054      .   S
    N3     O25       4.10410  1_655   S
    Zr22   O26       1.57476      .   S
    N10    O26       3.75622      .   S
    Zr27   O28       1.86110      .   S
    N9     O28       4.10590      .   S
    Zr27   O29       1.57521      .   S
    N4     O29       3.75737  1_455   S
    Zr27   O30       1.42930      .   S
    N0     O30       3.05437  1_556   S
    Zr27   O31       1.58325      .   S
    N0     O31       2.85621  1_556   S
    Zr32   O33       1.43073      .   S
    N10    O33       3.05858  1_556   S
    Zr32   O34       1.86075      .   S
    N8     O34       4.10431      .   S
    Zr32   O35       1.57471      .   S
    N5     O35       3.75587      .   S
    Zr32   O36       1.58468      .   S
    N10    O36       2.86041  1_556   S
    Zr37   O38       1.58493      .   S
    N9     O38       2.86009  1_565   S
    Zr37   O39       1.85804      .   S
    N1     O39       4.09820      .   S
    Zr37   O40       1.57480      .   S
    N3     O40       3.75663      .   S
    Zr37   O41       1.43067      .   S
    N9     O41       3.05849  1_565   S
    Zr42   O43       1.57484      .   S
    N11    O43       3.75916  1_455   S
    Zr42   O44       1.58528      .   S
    N7     O44       2.86108      .   S
    Zr42   O45       1.86135      .   S
    N0     O45       4.10291      .   S
    Zr42   O46       1.43120      .   S
    N7     O46       3.05923      .   S
    Zr47   O48       1.43087      .   S
    N8     O48       3.05876  1_565   S
    Zr47   O49       1.85896      .   S
    N11    O49       4.09985      .   S
    Zr47   O50       1.57512      .   S
    N2     O50       3.75673      .   S
    Zr47   O51       1.58503      .   S
    N8     O51       2.86044  1_565   S
    Zr52   O53       1.43068      .   S
    N11    O53       3.05785      .   S
    Zr52   O54       1.58479      .   S
    N11    O54       2.85964      .   S
    Zr52   O55       1.57693      .   S
    N6     O55       3.75918      .   S
    Zr52   O56       1.86132      .   S
    N4     O56       4.10242      .   S
    Zr57   O58       1.86104      .   S
    N5     O58       4.10242      .   S
    Zr57   O59       1.43106      .   S
    N1     O59       3.05887      .   S
    Zr57   O60       1.58516      .   S
    N1     O60       2.86069      .   S
    Zr57   O61       1.57619      .   S
    N7     O61       3.75793      .   S
    Zr62   O63       1.57457  1_655   S
    N8     O63       3.75594      .   S
    Zr62   O64       1.58502      .   S
    N3     O64       2.86010  1_545   S
    Zr62   O65       1.85781      .   S
    N7     O65       4.09814      .   S
    Zr62   O66       1.43080      .   S
    N3     O66       3.05849  1_545   S
    Zr67   O68       1.43087      .   S
    N5     O68       3.05885  1_554   S
    Zr67   O69       1.86088      .   S
    N2     O69       4.10466      .   S
    Zr67   O70       1.57511      .   S
    N0     O70       3.75638      .   S
    Zr67   O71       1.58484      .   S
    N5     O71       2.86068  1_554   S
