# CIF file generated by openbabel 2.4.90, see http://openbabel.sf.net
data_I
_chemical_name_common ''
_cell_length_a 20.649
_cell_length_b 13.709
_cell_length_c 14.912
_cell_angle_alpha 89.983
_cell_angle_beta 90
_cell_angle_gamma 90.33
_space_group_name_H-M_alt 'P 1'
_space_group_name_Hall 'P 1'
loop_
    _symmetry_equiv_pos_as_xyz
    x,y,z
loop_
    _atom_site_label
    _atom_site_type_symbol
    _atom_site_fract_x
    _atom_site_fract_y
    _atom_site_fract_z
    _atom_site_occupancy
    Al0     Al   0.61950   0.65958   0.89408   1.000
    Al1     Al   0.11224   0.38588   0.09608   1.000
    Al2     Al   0.61094   0.38488   0.09596   1.000
    Al3     Al   0.25495   0.72005   0.10865   1.000
    Al4     Al   0.75479   0.71983   0.10852   1.000
    Al5     Al   0.00417   0.39040   0.75796   1.000
    Al6     Al   0.50365   0.38969   0.75860   1.000
    Al7     Al   0.13173   0.84028   0.39463   1.000
    Al8     Al   0.63151   0.84047   0.39398   1.000
    Al9     Al   0.13977   0.11511   0.59590   1.000
    Al10    Al   0.64012   0.11564   0.59581   1.000
    Al11    Al   0.49642   0.77914   0.60847   1.000
    Al12    Al   0.99641   0.77909   0.60824   1.000
    Al13    Al   0.24673   0.10871   0.25800   1.000
    Al14    Al   0.74680   0.10915   0.25808   1.000
    Al15    Al   0.38245   0.34006   0.10640   1.000
    Al16    Al   0.88154   0.34016   0.10552   1.000
    Al17    Al   0.39022   0.61562   0.90438   1.000
    Al18    Al   0.88971   0.61494   0.90400   1.000
    Al19    Al   0.24625   0.27966   0.89214   1.000
    Al20    Al   0.74621   0.27871   0.89183   1.000
    Al21    Al   0.49689   0.60935   0.24206   1.000
    Al22    Al   0.99684   0.60891   0.24194   1.000
    Al23    Al   0.36939   0.16003   0.60522   1.000
    Al24    Al   0.86949   0.15969   0.60586   1.000
    Al25    Al   0.36209   0.88538   0.40406   1.000
    Al26    Al   0.86204   0.88563   0.40400   1.000
    Al27    Al   0.00493   0.22004   0.39141   1.000
    Al28    Al   0.50490   0.22011   0.39159   1.000
    Al29    Al   0.25422   0.89110   0.74239   1.000
    Al30    Al   0.75379   0.88974   0.74148   1.000
    Al31    Al   0.11948   0.66002   0.89414   1.000
    F32     F    0.85525   0.28243   0.59396   1.000
    F33     F    0.10529   0.78278   0.90613   1.000
    F34     F    0.60527   0.78237   0.90598   1.000
    F35     F    0.14475   0.71752   0.40976   1.000
    F36     F    0.64471   0.71738   0.40606   1.000
    F37     F    0.39742   0.21755   0.09401   1.000
    F38     F    0.89471   0.21748   0.09026   1.000
    F39     F    0.35529   0.28246   0.59011   1.000
    Ts40    Ts   0.61859   0.61317   0.89195   1.000
    Ts41    Ts   0.64842   0.66018   0.89035   1.000
    Ts42    Ts   0.60452   0.65662   0.85863   1.000
    Ts43    Ts   0.61037   0.65183   0.93274   1.000
    Ts44    Ts   0.10648   0.38198   0.05753   1.000
    Ts45    Ts   0.11918   0.42681   0.10295   1.000
    Ts46    Ts   0.13351   0.36126   0.10704   1.000
    Ts47    Ts   0.08854   0.37558   0.11499   1.000
    Ts48    Ts   0.60557   0.38066   0.05733   1.000
    Ts49    Ts   0.61767   0.42587   0.10284   1.000
    Ts50    Ts   0.63236   0.36055   0.10696   1.000
    Ts51    Ts   0.58710   0.37479   0.11479   1.000
    Ts52    Ts   0.25800   0.73525   0.07225   1.000
    Ts53    Ts   0.22856   0.70635   0.11535   1.000
    Ts54    Ts   0.26057   0.75120   0.13420   1.000
    Ts55    Ts   0.27302   0.68745   0.11408   1.000
    Ts56    Ts   0.75783   0.73510   0.07214   1.000
    Ts57    Ts   0.72852   0.70557   0.11521   1.000
    Ts58    Ts   0.76038   0.75112   0.13397   1.000
    Ts59    Ts   0.77295   0.68737   0.11397   1.000
    Ts60    Ts   0.02887   0.38253   0.77650   1.000
    Ts61    Ts   0.00264   0.43242   0.75131   1.000
    Ts62    Ts   0.98255   0.37830   0.78100   1.000
    Ts63    Ts   0.00366   0.36999   0.72404   1.000
    Ts64    Ts   0.52853   0.38208   0.77678   1.000
    Ts65    Ts   0.50153   0.43179   0.75276   1.000
    Ts66    Ts   0.48220   0.37670   0.78161   1.000
    Ts67    Ts   0.50334   0.36956   0.72450   1.000
    Ts68    Ts   0.13305   0.88655   0.39232   1.000
    Ts69    Ts   0.10278   0.84010   0.39063   1.000
    Ts70    Ts   0.14696   0.84224   0.35934   1.000
    Ts71    Ts   0.14071   0.84826   0.43340   1.000
    Ts72    Ts   0.63289   0.88672   0.39185   1.000
    Ts73    Ts   0.60254   0.84038   0.39021   1.000
    Ts74    Ts   0.64678   0.84277   0.35869   1.000
    Ts75    Ts   0.64050   0.84790   0.43275   1.000
    Ts76    Ts   0.14507   0.11934   0.55726   1.000
    Ts77    Ts   0.13291   0.07417   0.60290   1.000
    Ts78    Ts   0.11837   0.13945   0.60686   1.000
    Ts79    Ts   0.16352   0.12518   0.61485   1.000
    Ts80    Ts   0.64530   0.11983   0.55714   1.000
    Ts81    Ts   0.63402   0.07450   0.60290   1.000
    Ts82    Ts   0.61854   0.13966   0.60679   1.000
    Ts83    Ts   0.66373   0.12659   0.61480   1.000
    Ts84    Ts   0.49116   0.74740   0.63358   1.000
    Ts85    Ts   0.49377   0.76407   0.57201   1.000
    Ts86    Ts   0.52240   0.79430   0.61535   1.000
    Ts87    Ts   0.47801   0.81118   0.61393   1.000
    Ts88    Ts   0.99098   0.74769   0.63360   1.000
    Ts89    Ts   0.99366   0.76406   0.57180   1.000
    Ts90    Ts   0.02255   0.79362   0.61520   1.000
    Ts91    Ts   0.97806   0.81120   0.61376   1.000
    Ts92    Ts   0.22191   0.11683   0.27628   1.000
    Ts93    Ts   0.24853   0.06671   0.25127   1.000
    Ts94    Ts   0.24758   0.12941   0.22417   1.000
    Ts95    Ts   0.26826   0.12080   0.28122   1.000
    Ts96    Ts   0.72194   0.11713   0.27630   1.000
    Ts97    Ts   0.74869   0.06715   0.25128   1.000
    Ts98    Ts   0.74752   0.12991   0.22432   1.000
    Ts99    Ts   0.76828   0.12122   0.28135   1.000
    Ts100   Ts   0.38353   0.38639   0.10849   1.000
    Ts101   Ts   0.35348   0.33943   0.10974   1.000
    Ts102   Ts   0.39713   0.34274   0.14224   1.000
    Ts103   Ts   0.39181   0.34797   0.06776   1.000
    Ts104   Ts   0.88288   0.38643   0.10788   1.000
    Ts105   Ts   0.85257   0.33995   0.10938   1.000
    Ts106   Ts   0.89687   0.34214   0.14074   1.000
    Ts107   Ts   0.89055   0.34826   0.06679   1.000
    Ts108   Ts   0.36865   0.63965   0.89338   1.000
    Ts109   Ts   0.41381   0.62660   0.88535   1.000
    Ts110   Ts   0.39540   0.61976   0.94306   1.000
    Ts111   Ts   0.38414   0.57445   0.89734   1.000
    Ts112   Ts   0.86834   0.63936   0.89309   1.000
    Ts113   Ts   0.91348   0.62498   0.88500   1.000
    Ts114   Ts   0.89505   0.61910   0.94266   1.000
    Ts115   Ts   0.88283   0.57400   0.89699   1.000
    Ts116   Ts   0.22794   0.31179   0.88649   1.000
    Ts117   Ts   0.24305   0.26431   0.92843   1.000
    Ts118   Ts   0.27240   0.29455   0.88623   1.000
    Ts119   Ts   0.24101   0.24853   0.86646   1.000
    Ts120   Ts   0.72791   0.31088   0.88621   1.000
    Ts121   Ts   0.74307   0.26388   0.92830   1.000
    Ts122   Ts   0.77238   0.29324   0.88496   1.000
    Ts123   Ts   0.74098   0.24705   0.86665   1.000
    Ts124   Ts   0.51828   0.62160   0.21872   1.000
    Ts125   Ts   0.49785   0.62996   0.27588   1.000
    Ts126   Ts   0.47200   0.61727   0.22387   1.000
    Ts127   Ts   0.49880   0.56735   0.24882   1.000
    Ts128   Ts   0.01830   0.62108   0.21865   1.000
    Ts129   Ts   0.99775   0.62967   0.27572   1.000
    Ts130   Ts   0.97200   0.61697   0.22368   1.000
    Ts131   Ts   0.99862   0.56688   0.24864   1.000
    Ts132   Ts   0.36854   0.11366   0.60787   1.000
    Ts133   Ts   0.39828   0.16060   0.60917   1.000
    Ts134   Ts   0.35446   0.15793   0.64067   1.000
    Ts135   Ts   0.36028   0.15137   0.56667   1.000
    Ts136   Ts   0.86859   0.11336   0.60818   1.000
    Ts137   Ts   0.89841   0.16024   0.60959   1.000
    Ts138   Ts   0.85449   0.15676   0.64135   1.000
    Ts139   Ts   0.86043   0.15176   0.56719   1.000
    Ts140   Ts   0.38319   0.86036   0.39331   1.000
    Ts141   Ts   0.33838   0.87525   0.38516   1.000
    Ts142   Ts   0.35633   0.88166   0.44261   1.000
    Ts143   Ts   0.36916   0.92625   0.39697   1.000
    Ts144   Ts   0.88323   0.86081   0.39317   1.000
    Ts145   Ts   0.83834   0.87542   0.38501   1.000
    Ts146   Ts   0.85633   0.88161   0.44256   1.000
    Ts147   Ts   0.86902   0.92655   0.39710   1.000
    Ts148   Ts   0.02302   0.18747   0.38600   1.000
    Ts149   Ts   0.01054   0.25124   0.36590   1.000
    Ts150   Ts   0.00796   0.23524   0.42781   1.000
    Ts151   Ts   0.97855   0.20625   0.38471   1.000
    Ts152   Ts   0.52299   0.18755   0.38610   1.000
    Ts153   Ts   0.51054   0.25139   0.36614   1.000
    Ts154   Ts   0.50795   0.23534   0.42796   1.000
    Ts155   Ts   0.47852   0.20628   0.38489   1.000
    Ts156   Ts   0.25375   0.87048   0.77623   1.000
    Ts157   Ts   0.23261   0.87889   0.71938   1.000
    Ts158   Ts   0.27888   0.88302   0.72382   1.000
    Ts159   Ts   0.25274   0.93314   0.74894   1.000
    Ts160   Ts   0.75342   0.86960   0.77558   1.000
    Ts161   Ts   0.73237   0.87681   0.71845   1.000
    Ts162   Ts   0.77865   0.88210   0.72323   1.000
    Ts163   Ts   0.75167   0.93182   0.74732   1.000
    Ts164   Ts   0.11853   0.61373   0.89173   1.000
    Ts165   Ts   0.14838   0.66054   0.89042   1.000
    Ts166   Ts   0.10449   0.65758   0.85865   1.000
    Ts167   Ts   0.11042   0.65210   0.93282   1.000
loop_
    _geom_bond_atom_site_label_1
    _geom_bond_atom_site_label_2
    _geom_bond_distance
    _geom_bond_site_symmetry_2
    _ccdc_geom_bond_type
    F38    Al16      1.72048      .   S
    F37    Al15      1.71937      .   S
    Al8    F36       1.72031      .   S
    Al7    F35       1.72066      .   S
    F39    Al23      1.71988      .   S
    F32    Al24      1.71886      .   S
    Al0    F34       1.71979      .   S
    Al31   F33       1.71928      .   S
    Al0    Ts40      0.63712      .   S
    Al0    Ts41      0.59969      .   S
    Al0    Ts42      0.61382      .   S
    Al0    Ts43      0.61556      .   S
    Al1    Ts44      0.58937      .   S
    Al1    Ts45      0.58735      .   S
    Al1    Ts46      0.57898      .   S
    Al1    Ts47      0.58138      .   S
    Al2    Ts48      0.58943      .   S
    Al2    Ts49      0.58712      .   S
    Al2    Ts50      0.57920      .   S
    Al2    Ts51      0.58262      .   S
    Al3    Ts52      0.58461      .   S
    Al3    Ts53      0.58397      .   S
    Al3    Ts54      0.58356      .   S
    Al3    Ts55      0.58957      .   S
    Al4    Ts56      0.58475      .   S
    Al4    Ts57      0.58399      .   S
    Al4    Ts58      0.58389      .   S
    Al4    Ts59      0.58924      .   S
    Al5    Ts60      0.59060      .   S
    Al5    Ts61      0.58546      .   S
    Al5    Ts62      0.58649  1_455   S
    Al5    Ts63      0.57825      .   S
    Al6    Ts64      0.59069      .   S
    Al6    Ts65      0.58554      .   S
    Al6    Ts66      0.58704      .   S
    Al6    Ts67      0.57870      .   S
    Al7    Ts68      0.63557      .   S
    Al7    Ts69      0.60056      .   S
    Al7    Ts70      0.61365      .   S
    Al7    Ts71      0.61678      .   S
    Al8    Ts72      0.63530      .   S
    Al8    Ts73      0.60073      .   S
    Al8    Ts74      0.61418      .   S
    Al8    Ts75      0.61564      .   S
    Al9    Ts76      0.58937      .   S
    Al9    Ts77      0.58733      .   S
    Al9    Ts78      0.57874      .   S
    Al9    Ts79      0.58204      .   S
    Al10   Ts80      0.58925      .   S
    Al10   Ts81      0.58680      .   S
    Al10   Ts82      0.57914      .   S
    Al10   Ts83      0.58275      .   S
    Al11   Ts84      0.58357      .   S
    Al11   Ts85      0.58406      .   S
    Al11   Ts86      0.58323      .   S
    Al11   Ts87      0.58828      .   S
    Al12   Ts88      0.58323      .   S
    Al12   Ts89      0.58389      .   S
    Al12   Ts90      0.58368  1_655   S
    Al12   Ts91      0.58825      .   S
    Al13   Ts92      0.59158      .   S
    Al13   Ts93      0.58581      .   S
    Al13   Ts94      0.57899      .   S
    Al13   Ts95      0.58671      .   S
    Al14   Ts96      0.59153      .   S
    Al14   Ts97      0.58610      .   S
    Al14   Ts98      0.57846      .   S
    Al14   Ts99      0.58626      .   S
    Al15   Ts100     0.63626      .   S
    Al15   Ts101     0.60030      .   S
    Al15   Ts102     0.61533      .   S
    Al15   Ts103     0.61714      .   S
    Al16   Ts104     0.63574      .   S
    Al16   Ts105     0.60093      .   S
    Al16   Ts106     0.61381      .   S
    Al16   Ts107     0.61665      .   S
    Al17   Ts108     0.57910      .   S
    Al17   Ts109     0.58275      .   S
    Al17   Ts110     0.58929      .   S
    Al17   Ts111     0.58702      .   S
    Al18   Ts112     0.57878      .   S
    Al18   Ts113     0.58251      .   S
    Al18   Ts114     0.58968      .   S
    Al18   Ts115     0.58753      .   S
    Al19   Ts116     0.58811      .   S
    Al19   Ts117     0.58418      .   S
    Al19   Ts118     0.58281      .   S
    Al19   Ts119     0.58311      .   S
    Al20   Ts120     0.58838      .   S
    Al20   Ts121     0.58397      .   S
    Al20   Ts122     0.58404      .   S
    Al20   Ts123     0.58353      .   S
    Al21   Ts124     0.58618      .   S
    Al21   Ts125     0.57838      .   S
    Al21   Ts126     0.59168      .   S
    Al21   Ts127     0.58607      .   S
    Al22   Ts128     0.58635  1_655   S
    Al22   Ts129     0.57881      .   S
    Al22   Ts130     0.59176      .   S
    Al22   Ts131     0.58607      .   S
    Al23   Ts132     0.63707      .   S
    Al23   Ts133     0.59932      .   S
    Al23   Ts134     0.61264      .   S
    Al23   Ts135     0.61627      .   S
    Al24   Ts136     0.63636      .   S
    Al24   Ts137     0.59969      .   S
    Al24   Ts138     0.61434      .   S
    Al24   Ts139     0.61585      .   S
    Al25   Ts140     0.57881      .   S
    Al25   Ts141     0.58118      .   S
    Al25   Ts142     0.58920      .   S
    Al25   Ts143     0.58764      .   S
    Al26   Ts144     0.57894      .   S
    Al26   Ts145     0.58177      .   S
    Al26   Ts146     0.58952      .   S
    Al26   Ts147     0.58736      .   S
    Al27   Ts148     0.58954      .   S
    Al27   Ts149     0.58350      .   S
    Al27   Ts150     0.58470      .   S
    Al27   Ts151     0.58408  1_455   S
    Al28   Ts152     0.58938      .   S
    Al28   Ts153     0.58383      .   S
    Al28   Ts154     0.58451      .   S
    Al28   Ts155     0.58429      .   S
    Al29   Ts156     0.57835      .   S
    Al29   Ts157     0.58663      .   S
    Al29   Ts158     0.59075      .   S
    Al29   Ts159     0.58549      .   S
    Al30   Ts160     0.57859      .   S
    Al30   Ts161     0.58655      .   S
    Al30   Ts162     0.59091      .   S
    Al30   Ts163     0.58525      .   S
    Al31   Ts164     0.63590      .   S
    Al31   Ts165     0.59944      .   S
    Al31   Ts166     0.61398      .   S
    Al31   Ts167     0.61577      .   S
