# CIF file generated by openbabel 2.4.90, see http://openbabel.sf.net
data_I
_chemical_name_common ''
_cell_length_a 18.604
_cell_length_b 19.052
_cell_length_c 19.059
_cell_angle_alpha 70.331
_cell_angle_beta 70.885
_cell_angle_gamma 108.967
_space_group_name_H-M_alt 'P 1'
_space_group_name_Hall 'P 1'
loop_
    _symmetry_equiv_pos_as_xyz
    x,y,z
loop_
    _atom_site_label
    _atom_site_type_symbol
    _atom_site_fract_x
    _atom_site_fract_y
    _atom_site_fract_z
    _atom_site_occupancy
    H0      H    0.50295   0.37802   0.27152   1.000
    H1      H    0.36414   0.23465   0.00852   1.000
    H2      H    0.42035   0.70090   0.30830   1.000
    H3      H    0.18666   0.59354   0.25268   1.000
    H4      H    0.15956   0.51326   0.17481   1.000
    H5      H    0.27436   0.48054   0.10463   1.000
    H6      H    0.52354   0.65627   0.24377   1.000
    H7      H    0.28201   0.66148   0.30171   1.000
    H8      H    0.49302   0.57569   0.16823   1.000
    H9      H    0.77534   0.27146   0.35025   1.000
    H10     H    0.37174   0.00938   0.75750   1.000
    H11     H    0.72417   0.30303   0.99350   1.000
    H12     H    0.43640   0.25075   0.15823   1.000
    H13     H    0.33316   0.17502   0.31601   1.000
    H14     H    0.37897   0.10573   0.41743   1.000
    H15     H    0.76397   0.23925   0.10125   1.000
    H16     H    0.57979   0.29791   0.04064   1.000
    H17     H    0.65958   0.16608   0.25704   1.000
    H18     H    0.12608   0.35002   0.37686   1.000
    H19     H    0.13149   0.75661   0.23529   1.000
    H20     H    0.71709   0.99350   0.70317   1.000
    H21     H    0.59329   0.15742   0.59255   1.000
    H22     H    0.64804   0.31500   0.51025   1.000
    H23     H    0.79594   0.41681   0.47708   1.000
    H24     H    0.86542   0.10145   0.65777   1.000
    H25     H    0.61922   0.04020   0.66243   1.000
    H26     H    0.91700   0.25707   0.57504   1.000
    H27     H    0.72430   0.35036   0.27167   1.000
    H28     H    0.12803   0.75714   0.00936   1.000
    H29     H    0.77568   0.99365   0.30300   1.000
    H30     H    0.06322   0.15791   0.25108   1.000
    H31     H    0.16651   0.31557   0.17515   1.000
    H32     H    0.12088   0.41711   0.10563   1.000
    H33     H    0.73608   0.10151   0.23921   1.000
    H34     H    0.91992   0.04055   0.29827   1.000
    H35     H    0.84049   0.25718   0.16584   1.000
    H36     H    0.37464   0.37687   0.35010   1.000
    H37     H    0.36853   0.23554   0.75690   1.000
    H38     H    0.78348   0.70353   0.99332   1.000
    H39     H    0.90720   0.59263   0.15703   1.000
    H40     H    0.85219   0.50989   0.31467   1.000
    H41     H    0.70410   0.47660   0.41667   1.000
    H42     H    0.63482   0.65765   0.10145   1.000
    H43     H    0.88146   0.66286   0.03988   1.000
    H44     H    0.58308   0.57472   0.25709   1.000
    H45     H    0.99649   0.27148   0.37830   1.000
    H46     H    0.13626   0.00909   0.23390   1.000
    H47     H    0.07932   0.30830   0.70091   1.000
    H48     H    0.31296   0.25202   0.59350   1.000
    H49     H    0.34001   0.17393   0.51339   1.000
    H50     H    0.22530   0.10403   0.48070   1.000
    H51     H    0.97614   0.24384   0.65651   1.000
    H52     H    0.21766   0.30147   0.66133   1.000
    H53     H    0.00675   0.16824   0.57590   1.000
    H54     H    0.49703   0.62197   0.72848   1.000
    H55     H    0.63584   0.76535   0.99148   1.000
    H56     H    0.57962   0.29909   0.69170   1.000
    H57     H    0.81332   0.40645   0.74732   1.000
    H58     H    0.84042   0.48673   0.82519   1.000
    H59     H    0.72562   0.51945   0.89537   1.000
    H60     H    0.47644   0.34373   0.75623   1.000
    H61     H    0.71796   0.33851   0.69829   1.000
    H62     H    0.50696   0.42431   0.83177   1.000
    H63     H    0.22464   0.72854   0.64976   1.000
    H64     H    0.62823   0.99061   0.24244   1.000
    H65     H    0.27580   0.69696   0.00650   1.000
    H66     H    0.56358   0.74924   0.84178   1.000
    H67     H    0.66682   0.82497   0.68400   1.000
    H68     H    0.62101   0.89427   0.58258   1.000
    H69     H    0.23601   0.76074   0.89875   1.000
    H70     H    0.42019   0.70209   0.95937   1.000
    H71     H    0.34039   0.83392   0.74297   1.000
    H72     H    0.87390   0.64998   0.62314   1.000
    H73     H    0.86849   0.24340   0.76471   1.000
    H74     H    0.28288   0.00650   0.29684   1.000
    H75     H    0.40669   0.84258   0.40746   1.000
    H76     H    0.35194   0.68500   0.48975   1.000
    H77     H    0.20404   0.58319   0.52292   1.000
    H78     H    0.13455   0.89855   0.34223   1.000
    H79     H    0.38075   0.95980   0.33757   1.000
    H80     H    0.08298   0.74293   0.42496   1.000
    H81     H    0.27568   0.64964   0.72830   1.000
    H82     H    0.87195   0.24286   0.99064   1.000
    H83     H    0.22429   0.00635   0.69671   1.000
    H84     H    0.93676   0.84208   0.74893   1.000
    H85     H    0.83347   0.68443   0.82485   1.000
    H86     H    0.87910   0.58288   0.89438   1.000
    H87     H    0.26390   0.89849   0.76079   1.000
    C88     C    0.80062   0.12308   0.23345   1.000
    C89     C    0.96365   0.17523   0.22524   1.000
    C90     C    0.90265   0.08696   0.26744   1.000
    C91     C    0.94145   0.23746   0.18610   1.000
    H92     H    0.08005   0.95945   0.70173   1.000
    H93     H    0.15949   0.74282   0.83416   1.000
    H94     H    0.62534   0.62313   0.64982   1.000
    H95     H    0.63144   0.76446   0.24311   1.000
    H96     H    0.21650   0.29647   0.00668   1.000
    H97     H    0.09277   0.40736   0.84298   1.000
    H98     H    0.14779   0.49010   0.68534   1.000
    H99     H    0.29588   0.52340   0.58334   1.000
    H100    H    0.36515   0.34234   0.89856   1.000
    H101    H    0.11851   0.33713   0.96013   1.000
    H102    H    0.41689   0.42527   0.74291   1.000
    H103    H    0.00349   0.72852   0.62170   1.000
    H104    H    0.86372   0.99091   0.76606   1.000
    H105    H    0.92066   0.69169   0.29900   1.000
    H106    H    0.68701   0.74797   0.40650   1.000
    H107    H    0.65997   0.82606   0.48662   1.000
    H108    H    0.77467   0.89597   0.51928   1.000
    H109    H    0.02383   0.75615   0.34349   1.000
    H110    H    0.78231   0.69853   0.33860   1.000
    H111    H    0.99323   0.83176   0.42410   1.000
    H112    H    0.73313   0.48325   0.03429   1.000
    H113    H    0.57330   0.32408   0.35160   1.000
    H114    H    0.76685   0.03429   0.48336   1.000
    H115    H    0.92608   0.35150   0.32414   1.000
    H116    H    0.24992   0.48255   0.48260   1.000
    H117    H    0.25053   0.32330   0.32330   1.000
    H118    H    0.26685   0.51675   0.96571   1.000
    H119    H    0.42668   0.67591   0.64833   1.000
    C120    C    0.54618   0.77911   0.79518   1.000
    C121    C    0.60279   0.82050   0.70860   1.000
    C122    C    0.57720   0.85875   0.65139   1.000
    C123    C    0.30062   0.76655   0.87708   1.000
    C124    C    0.46381   0.77485   0.82466   1.000
    H125    H    0.23313   0.96571   0.51665   1.000
    H126    H    0.07390   0.64850   0.67586   1.000
    H127    H    0.75006   0.51745   0.51734   1.000
    H128    H    0.74944   0.67670   0.67670   1.000
    H129    H    0.24996   0.24065   0.24068   1.000
    H130    H    0.25025   0.08169   0.08080   1.000
    H131    H    0.49042   0.24010   0.51994   1.000
    H132    H    0.32939   0.08266   0.83750   1.000
    H133    H    0.00947   0.51971   0.24023   1.000
    H134    H    0.17055   0.83712   0.08242   1.000
    H135    H    0.75001   0.75934   0.75932   1.000
    H136    H    0.74973   0.91831   0.91921   1.000
    H137    H    0.50955   0.75990   0.48007   1.000
    H138    H    0.67059   0.91734   0.16200   1.000
    H139    H    0.99052   0.48029   0.75977   1.000
    H140    H    0.82943   0.16289   0.91758   1.000
    C141    C    0.61229   0.43122   0.14782   1.000
    C142    C    0.56851   0.38848   0.23750   1.000
    C143    C    0.31242   0.24788   0.11929   1.000
    C144    C    0.31346   0.20219   0.07496   1.000
    C145    C    0.40605   0.66647   0.27482   1.000
    C146    C    0.23374   0.57651   0.22242   1.000
    C147    C    0.21878   0.53235   0.17983   1.000
    C148    C    0.28241   0.51297   0.14114   1.000
    C149    C    0.46523   0.64162   0.23724   1.000
    C150    C    0.31141   0.60038   0.22730   1.000
    C151    C    0.32996   0.64557   0.27067   1.000
    C152    C    0.37253   0.57685   0.18785   1.000
    C153    C    0.44915   0.59745   0.19470   1.000
    C154    C    0.76029   0.14783   0.42128   1.000
    C155    C    0.80664   0.23742   0.37398   1.000
    C156    C    0.43109   0.11931   0.63386   1.000
    C157    C    0.38749   0.07571   0.72354   1.000
    C158    C    0.67710   0.27056   0.06131   1.000
    C159    C    0.45380   0.22088   0.20483   1.000
    C160    C    0.39719   0.17950   0.29141   1.000
    C161    C    0.42277   0.14124   0.34862   1.000
    C162    C    0.69936   0.23344   0.12292   1.000
    C163    C    0.53617   0.22515   0.17535   1.000
    C164    C    0.59713   0.26719   0.08700   1.000
    C165    C    0.55844   0.18609   0.23751   1.000
    C166    C    0.64175   0.19228   0.20936   1.000
    C167    C    0.18161   0.42073   0.43042   1.000
    C168    C    0.18091   0.37352   0.38761   1.000
    C169    C    0.06540   0.63328   0.24803   1.000
    C170    C    0.11284   0.72287   0.20264   1.000
    C171    C    0.73791   0.06125   0.66780   1.000
    C172    C    0.65763   0.20415   0.57520   1.000
    C173    C    0.68769   0.29063   0.52990   1.000
    C174    C    0.77088   0.34804   0.51033   1.000
    C175    C    0.82222   0.12298   0.64255   1.000
    C176    C    0.71079   0.17494   0.59984   1.000
    C177    C    0.68329   0.08669   0.64619   1.000
    C178    C    0.79568   0.23727   0.57597   1.000
    C179    C    0.85116   0.20933   0.59719   1.000
    C180    C    0.73952   0.42128   0.14794   1.000
    C181    C    0.69300   0.37398   0.23757   1.000
    C182    C    0.06875   0.63353   0.11937   1.000
    C183    C    0.11236   0.72316   0.07567   1.000
    C184    C    0.82279   0.06141   0.27072   1.000
    C185    C    0.04591   0.20457   0.22100   1.000
    C186    C    0.10256   0.29108   0.17958   1.000
    C187    C    0.07706   0.34836   0.14121   1.000
    C188    C    0.85826   0.20945   0.19215   1.000
    C189    C    0.31863   0.43036   0.42088   1.000
    C190    C    0.31967   0.38758   0.37365   1.000
    C191    C    0.43452   0.24806   0.63350   1.000
    C192    C    0.38712   0.20280   0.72310   1.000
    C193    C    0.76257   0.66800   0.06108   1.000
    C194    C    0.84276   0.57516   0.20385   1.000
    C195    C    0.81256   0.52970   0.29035   1.000
    C196    C    0.72924   0.50997   0.34787   1.000
    C197    C    0.67808   0.64250   0.12291   1.000
    C198    C    0.78960   0.59989   0.17472   1.000
    C199    C    0.81724   0.64643   0.08640   1.000
    C200    C    0.70455   0.57581   0.23715   1.000
    C201    C    0.64904   0.59702   0.20928   1.000
    C202    C    0.88745   0.14779   0.43138   1.000
    C203    C    0.93103   0.23742   0.38871   1.000
    C204    C    0.18774   0.11951   0.24750   1.000
    C205    C    0.18684   0.07546   0.20161   1.000
    C206    C    0.09364   0.27476   0.66650   1.000
    C207    C    0.26590   0.22186   0.57653   1.000
    C208    C    0.28084   0.17916   0.53244   1.000
    C209    C    0.21726   0.14061   0.51311   1.000
    C210    C    0.03446   0.23722   0.64178   1.000
    C211    C    0.18828   0.22704   0.60037   1.000
    C212    C    0.16972   0.27045   0.64552   1.000
    C213    C    0.12719   0.18762   0.57695   1.000
    C214    C    0.05059   0.19473   0.59760   1.000
    C215    C    0.38769   0.56878   0.85218   1.000
    C216    C    0.43147   0.61152   0.76250   1.000
    C217    C    0.68756   0.75211   0.88071   1.000
    C218    C    0.68652   0.79781   0.92500   1.000
    C219    C    0.59393   0.33352   0.72518   1.000
    C220    C    0.76624   0.42348   0.77758   1.000
    C221    C    0.78120   0.46764   0.82017   1.000
    C222    C    0.71757   0.48702   0.85880   1.000
    C223    C    0.53474   0.35837   0.76276   1.000
    C224    C    0.68856   0.39962   0.77266   1.000
    C225    C    0.67002   0.35443   0.72933   1.000
    C226    C    0.62745   0.42314   0.81210   1.000
    C227    C    0.55083   0.40255   0.80521   1.000
    C228    C    0.23969   0.85217   0.57873   1.000
    C229    C    0.19334   0.76258   0.62602   1.000
    C230    C    0.56889   0.88068   0.36615   1.000
    C231    C    0.61249   0.92429   0.27647   1.000
    C232    C    0.32288   0.72944   0.93870   1.000
    C233    C    0.40284   0.73280   0.91301   1.000
    C234    C    0.44154   0.81390   0.76249   1.000
    C235    C    0.35822   0.80771   0.79064   1.000
    C236    C    0.81837   0.57927   0.56958   1.000
    C237    C    0.81907   0.62647   0.61239   1.000
    C238    C    0.93458   0.36672   0.75190   1.000
    C239    C    0.88714   0.27714   0.79736   1.000
    C240    C    0.26207   0.93875   0.33220   1.000
    C241    C    0.34235   0.79585   0.42480   1.000
    C242    C    0.31229   0.70937   0.47005   1.000
    C243    C    0.22910   0.65196   0.48967   1.000
    C244    C    0.17776   0.87702   0.35745   1.000
    C245    C    0.28919   0.82506   0.40010   1.000
    C246    C    0.31668   0.91331   0.35381   1.000
    C247    C    0.20430   0.76273   0.42400   1.000
    C248    C    0.14882   0.79067   0.40281   1.000
    C249    C    0.26046   0.57871   0.85207   1.000
    C250    C    0.30698   0.62602   0.76243   1.000
    C251    C    0.93123   0.36647   0.88063   1.000
    C252    C    0.88762   0.27684   0.92433   1.000
    C253    C    0.17719   0.93859   0.72928   1.000
    C254    C    0.95407   0.79543   0.77891   1.000
    C255    C    0.89742   0.70892   0.82042   1.000
    C256    C    0.92292   0.65164   0.85880   1.000
    C257    C    0.19935   0.87692   0.76655   1.000
    C258    C    0.03632   0.82477   0.77470   1.000
    C259    C    0.09733   0.91304   0.73256   1.000
    C260    C    0.05853   0.76254   0.81390   1.000
    C261    C    0.14172   0.79055   0.80785   1.000
    C262    C    0.68135   0.56963   0.57913   1.000
    C263    C    0.68030   0.61242   0.62635   1.000
    C264    C    0.56546   0.75194   0.36640   1.000
    C265    C    0.61285   0.79720   0.27685   1.000
    C266    C    0.23741   0.33200   0.93893   1.000
    C267    C    0.15722   0.42483   0.79615   1.000
    C268    C    0.18741   0.47030   0.70965   1.000
    C269    C    0.27073   0.49002   0.65214   1.000
    C270    C    0.32190   0.35750   0.87700   1.000
    C271    C    0.21037   0.40010   0.82528   1.000
    C272    C    0.18274   0.35357   0.91356   1.000
    C273    C    0.29542   0.42418   0.76285   1.000
    C274    C    0.35094   0.40298   0.79072   1.000
    C275    C    0.11252   0.85220   0.56863   1.000
    C276    C    0.06895   0.76257   0.61100   1.000
    C277    C    0.81223   0.88049   0.75242   1.000
    C278    C    0.81313   0.92454   0.79839   1.000
    C279    C    0.90633   0.72524   0.33351   1.000
    C280    C    0.73408   0.77814   0.42347   1.000
    C281    C    0.71914   0.82083   0.46757   1.000
    C282    C    0.78272   0.85938   0.48600   1.000
    C283    C    0.96551   0.76278   0.35822   1.000
    C284    C    0.81169   0.77295   0.39963   1.000
    C285    C    0.83026   0.72954   0.35448   1.000
    C286    C    0.87279   0.81238   0.42305   1.000
    C287    C    0.94939   0.80527   0.40240   1.000
    C288    C    0.69807   0.44830   0.10300   1.000
    C289    C    0.60841   0.35901   0.28199   1.000
    C290    C    0.80177   0.10376   0.44843   1.000
    C291    C    0.89112   0.28185   0.35908   1.000
    C292    C    0.25004   0.44766   0.44777   1.000
    C293    C    0.25038   0.35825   0.35831   1.000
    C294    C    0.30191   0.55170   0.89621   1.000
    C295    C    0.39157   0.64098   0.71801   1.000
    C296    C    0.19821   0.89624   0.55158   1.000
    C297    C    0.10886   0.71815   0.64093   1.000
    C298    C    0.74994   0.55233   0.55223   1.000
    C299    C    0.74960   0.64175   0.64169   1.000
    C300    C    0.25002   0.20582   0.20567   1.000
    C301    C    0.25020   0.11657   0.11591   1.000
    C302    C    0.45516   0.20558   0.58951   1.000
    C303    C    0.36479   0.11724   0.76779   1.000
    C304    C    0.04474   0.58924   0.20564   1.000
    C305    C    0.13512   0.76743   0.11708   1.000
    C306    C    0.74995   0.79418   0.79433   1.000
    C307    C    0.74978   0.88342   0.88409   1.000
    C308    C    0.54481   0.79441   0.41050   1.000
    C309    C    0.63519   0.88276   0.23222   1.000
    C310    C    0.95524   0.41076   0.79436   1.000
    C311    C    0.86485   0.23257   0.88292   1.000
    N312    N    0.35677   0.53422   0.14410   1.000
    N313    N    0.49987   0.14357   0.32374   1.000
    N314    N    0.82337   0.32342   0.53233   1.000
    N315    N    0.00007   0.32361   0.14345   1.000
    N316    N    0.67676   0.53206   0.32330   1.000
    N317    N    0.14296   0.14381   0.53432   1.000
    N318    N    0.64321   0.46577   0.85590   1.000
    N319    N    0.50011   0.85643   0.67627   1.000
    N320    N    0.17661   0.67658   0.46767   1.000
    N321    N    0.99991   0.67639   0.85650   1.000
    N322    N    0.32321   0.46793   0.67668   1.000
    N323    N    0.85702   0.85618   0.46568   1.000
loop_
    _geom_bond_atom_site_label_1
    _geom_bond_atom_site_label_2
    _geom_bond_distance
    _geom_bond_site_symmetry_2
    _ccdc_geom_bond_type
    H65    C232      1.08995  1_554   S
    H96    C266      1.09009  1_554   S
    H1     C144      1.08937      .   S
    H28    C183      1.08930      .   S
    H112   C288      1.07470      .   S
    H43    C199      1.08994      .   S
    H16    C164      1.09026      .   S
    C193   C199      1.37686      .   S
    C193   C197      1.41438      .   S
    C193   H38       1.09025  1_554   S
    C158   C164      1.37727      .   S
    C158   C162      1.41431      .   S
    C158   H11       1.09009  1_554   S
    C144   C301      1.39587      .   S
    C144   C143      1.40262      .   S
    C183   C305      1.39590      .   S
    C183   C182      1.40258      .   S
    H130   C301      1.09040      .   S
    H134   C305      1.09041      .   S
    C199   C198      1.41989      .   S
    C164   C163      1.41918      .   S
    H15    C162      1.08868      .   S
    H42    C197      1.08875      .   S
    C288   C141      1.40166      .   S
    C288   C180      1.40958      .   S
    H5     C148      1.08898      .   S
    H32    C187      1.08912      .   S
    C301   C205      1.39587      .   S
    C305   C170      1.39580      .   S
    C143   C300      1.39843      .   S
    C182   C304      1.39820      .   S
    C197   C201      1.38039      .   S
    C162   C166      1.38033      .   S
    C148   N312      1.33538      .   S
    C148   C147      1.40603      .   S
    C187   N315      1.33527      .   S
    C187   C186      1.40614      .   S
    N315   C91       1.37899  1_455   S
    N312   C152      1.37916      .   S
    C141   C142      1.40288      .   S
    C180   C181      1.40276      .   S
    H39    C194      1.08836      .   S
    H12    C159      1.08863      .   S
    H138   C309      1.09820      .   S
    H35    C188      1.08841      .   S
    H8     C153      1.08786      .   S
    C198   C194      1.41228      .   S
    C198   C200      1.43436      .   S
    H4     C147      1.08960      .   S
    H31    C186      1.08960      .   S
    C163   C159      1.41245      .   S
    C163   C165      1.43436      .   S
    C186   C185      1.37850      .   S
    C147   C146      1.37825      .   S
    C91    C188      1.41353      .   S
    C91    C89       1.43448      .   S
    C152   C153      1.41273      .   S
    C152   C150      1.43423      .   S
    C188   C88       1.38038      .   S
    C153   C149      1.38194      .   S
    C205   H46       1.08939      .   S
    C205   C204      1.40140      .   S
    C170   H19       1.08927      .   S
    C170   C169      1.40261      .   S
    C194   C195      1.37828      .   S
    C159   C160      1.37839      .   S
    C304   H133      1.08800      .   S
    C304   C169      1.39805      .   S
    C300   H129      1.08798      .   S
    C300   C204      1.39866      .   S
    C201   C200      1.41353      .   S
    C201   H44       1.08843      .   S
    C166   C165      1.41350      .   S
    C166   H17       1.08850      .   S
    C185   C89       1.41184  1_455   S
    C185   H30       1.08931      .   S
    C146   C150      1.41180      .   S
    C146   H3        1.08849      .   S
    C89    C90       1.41920      .   S
    C150   C151      1.41996      .   S
    C309   C231      1.39592      .   S
    C309   C265      1.39584      .   S
    C88    H33       1.08867      .   S
    C88    C184      1.41437      .   S
    C200   N316      1.37863      .   S
    C149   H6        1.08858      .   S
    C149   C145      1.41425      .   S
    C142   H0        1.08846      .   S
    C142   C289      1.39566      .   S
    C165   N313      1.37902      .   S
    C181   H27       1.08860      .   S
    C181   C289      1.39569      .   S
    H64    C231      1.08925      .   S
    H95    C265      1.08939      .   S
    C90    C184      1.37723      .   S
    C90    H34       1.09031      .   S
    C151   C145      1.37719      .   S
    C151   H7        1.09021      .   S
    C184   H29       1.09084  1_545   S
    C145   H2        1.08986      .   S
    C231   C230      1.40271      .   S
    C265   C264      1.40121      .   S
    C289   H113      1.08866      .   S
    C195   H40       1.08966      .   S
    C195   C196      1.40605      .   S
    C160   H13       1.08964      .   S
    C160   C161      1.40615      .   S
    H74    C240      1.09029  1_545   S
    H105   C279      1.09134      .   S
    N316   C196      1.33548      .   S
    H117   C293      1.08980      .   S
    N313   C161      1.33525      .   S
    H115   C291      1.08990      .   S
    C240   C246      1.37729      .   S
    C240   C244      1.41439      .   S
    C279   C285      1.37718      .   S
    C279   C283      1.41415      .   S
    H79    C246      1.09025      .   S
    H110   C285      1.09127      .   S
    H78    C244      1.08872      .   S
    H109   C283      1.08879  1_455   S
    C196   H41       1.08911      .   S
    C161   H14       1.08909      .   S
    H36    C190      1.08878      .   S
    H9     C155      1.08854      .   S
    C246   C245      1.41908      .   S
    C285   C284      1.41912      .   S
    C244   C248      1.38049      .   S
    C283   C287      1.38044      .   S
    C293   C190      1.39571      .   S
    C293   C168      1.39573      .   S
    C291   C155      1.39575      .   S
    C291   C203      1.39570      .   S
    C230   C308      1.39812      .   S
    C264   C308      1.39911      .   S
    C190   C189      1.40285      .   S
    C155   C154      1.40280      .   S
    H18    C168      1.08851      .   S
    H45    C203      1.08850      .   S
    C168   C167      1.40290      .   S
    C203   C202      1.40286      .   S
    C284   C286      1.43467      .   S
    C284   C280      1.41231      .   S
    C245   C247      1.43429      .   S
    C245   C241      1.41280      .   S
    C287   C286      1.41350      .   S
    C287   H111      1.08844      .   S
    C248   C247      1.41323      .   S
    C248   H80       1.08837      .   S
    H106   C280      1.08857      .   S
    H75    C241      1.08852      .   S
    C308   H137      1.08804      .   S
    C189   C292      1.39945      .   S
    C154   C290      1.39952      .   S
    C286   N323      1.37923      .   S
    C280   C281      1.37830      .   S
    C247   N320      1.37910      .   S
    C241   C242      1.37832      .   S
    C167   C292      1.39950      .   S
    C202   C290      1.39942      .   S
    C292   H116      1.08594      .   S
    C290   H114      1.08706      .   S
    N323   C282      1.33583      .   S
    C281   C282      1.39391      .   S
    C281   H107      1.08959      .   S
    N320   C243      1.33524      .   S
    C242   C243      1.40601      .   S
    C242   H76       1.08963      .   S
    H23    C174      1.08913      .   S
    H50    C209      1.08943      .   S
    C282   H108      1.10171      .   S
    C243   H77       1.08912      .   S
    H22    C173      1.08924      .   S
    C174   C173      1.40634      .   S
    C174   N314      1.33523      .   S
    C209   C208      1.40608      .   S
    C209   N317      1.33536      .   S
    H49    C208      1.08960      .   S
    H125   C296      1.08706      .   S
    H127   C298      1.08687      .   S
    H131   C302      1.08804      .   S
    C173   C172      1.37840      .   S
    N314   C178      1.37906      .   S
    C208   C207      1.37818      .   S
    N317   C213      1.37925      .   S
    C296   C275      1.39942      .   S
    C296   C228      1.39949      .   S
    C298   C236      1.39952      .   S
    C298   C262      1.39947      .   S
    C275   C276      1.40298      .   S
    C236   C237      1.40288      .   S
    H26    C179      1.08838      .   S
    C172   H21       1.08847      .   S
    C172   C176      1.41234      .   S
    H53    C214      1.08844      .   S
    C178   C179      1.41349      .   S
    C178   C176      1.43444      .   S
    C207   H48       1.08856      .   S
    C207   C211      1.41230      .   S
    C213   C214      1.41349      .   S
    C213   C211      1.43465      .   S
    C228   C229      1.40280      .   S
    C262   C263      1.40269      .   S
    H68    C122      1.08909      .   S
    H99    C269      1.08911      .   S
    C302   C191      1.39762      .   S
    C302   C156      1.39812      .   S
    C179   C175      1.38047      .   S
    C214   C210      1.38043      .   S
    C176   C177      1.41920      .   S
    C211   C212      1.41913      .   S
    C276   H103      1.08638      .   S
    C276   C297      1.39786      .   S
    C237   H72       1.08851      .   S
    C237   C299      1.39573      .   S
    C229   C297      1.39567      .   S
    C229   H63       1.08863      .   S
    C263   C299      1.39573      .   S
    C263   H94       1.08853      .   S
    C191   C192      1.40198      .   S
    C156   C157      1.40271      .   S
    C297   H126      1.08988      .   S
    C299   H128      1.08978      .   S
    C210   H51       1.08878  1_455   S
    C210   C206      1.41429      .   S
    C175   H24       1.08873      .   S
    C175   C171      1.41439      .   S
    C212   H52       1.09030      .   S
    C212   C206      1.37716      .   S
    C177   H25       1.09023      .   S
    C177   C171      1.37732      .   S
    H119   C295      1.08975      .   S
    C122   N319      1.33525      .   S
    C122   C121      1.40615      .   S
    C269   N322      1.33520      .   S
    C269   C268      1.40598      .   S
    C206   H47       1.08996      .   S
    C171   H20       1.09028  1_545   S
    N319   C234      1.37888      .   S
    N322   C273      1.37896      .   S
    H67    C121      1.08964      .   S
    H98    C268      1.08955      .   S
    H56    C219      1.08988      .   S
    H83    C253      1.09031  1_545   S
    H61    C225      1.09022      .   S
    H92    C259      1.09033      .   S
    C121   C120      1.37840      .   S
    C268   C267      1.37828      .   S
    C295   C250      1.39568      .   S
    C295   C216      1.39568      .   S
    C192   H37       1.09016      .   S
    C192   C303      1.39598      .   S
    C157   H10       1.08910      .   S
    C157   C303      1.39591      .   S
    C219   C225      1.37719      .   S
    C219   C223      1.41427      .   S
    H81    C250      1.08897      .   S
    H54    C216      1.08846      .   S
    C253   C259      1.37723      .   S
    C253   C257      1.41435      .   S
    C225   C224      1.41926      .   S
    C259   C258      1.41930      .   S
    H102   C274      1.08843      .   S
    H71    C235      1.08835      .   S
    H57    C220      1.08850      .   S
    H84    C254      1.08863      .   S
    C238   C310      1.39923      .   S
    C238   C239      1.40260      .   S
    C277   C306      1.39852      .   S
    C277   C278      1.40265      .   S
    H60    C223      1.08857      .   S
    H135   C306      1.08796      .   S
    H139   C310      1.08798      .   S
    H87    C257      1.08869      .   S
    C250   C249      1.40291      .   S
    C234   C235      1.41349      .   S
    C234   C124      1.43451      .   S
    C216   C215      1.40288      .   S
    C223   C227      1.38044      .   S
    C273   C274      1.41353      .   S
    C273   C271      1.43437      .   S
    H73    C239      1.08929      .   S
    H104   C278      1.08933      .   S
    C257   C261      1.38039      .   S
    C303   H132      1.09024      .   S
    C224   C220      1.41221      .   S
    C224   C226      1.43419      .   S
    C258   C254      1.41210  1_455   S
    C258   C260      1.43484      .   S
    C220   C221      1.37823      .   S
    C254   C255      1.37835      .   S
    C235   C123      1.38034      .   S
    C274   C270      1.37893      .   S
    C306   C217      1.39843      .   S
    C310   C251      1.39820      .   S
    C120   C124      1.41244      .   S
    C120   H66       1.08865      .   S
    C267   C271      1.41227      .   S
    C267   H97       1.08843      .   S
    C239   C311      1.39580      .   S
    C278   C307      1.39586      .   S
    C227   C226      1.41316      .   S
    C227   H62       1.08847      .   S
    C261   C260      1.41355      .   S
    C261   H93       1.08841      .   S
    C226   N318      1.37994      .   S
    C260   N321      1.37906  1_455   S
    C221   H58       1.08962      .   S
    C221   C222      1.40566      .   S
    C255   H85       1.08962      .   S
    C255   C256      1.40619      .   S
    C124   C233      1.41918      .   S
    C271   C272      1.41924      .   S
    C249   C294      1.39954      .   S
    C215   C294      1.39933      .   S
    N318   C222      1.33486      .   S
    N321   C256      1.33478      .   S
    C222   H59       1.08995      .   S
    C256   H86       1.08911      .   S
    C270   H100      1.08975      .   S
    C270   C266      1.41505      .   S
    C123   H69       1.08866      .   S
    C123   C232      1.41444      .   S
    C251   C252      1.40258      .   S
    C217   C218      1.40199      .   S
    C311   H140      1.09041      .   S
    C311   C252      1.39590      .   S
    C307   H136      1.09054      .   S
    C307   C218      1.39596      .   S
    C294   H118      1.08695      .   S
    C233   C232      1.37728      .   S
    C233   H70       1.09026      .   S
    C272   C266      1.37735      .   S
    C272   H101      1.09028      .   S
    C252   H82       1.08930      .   S
    C218   H55       1.08990      .   S
