# CIF file generated by openbabel 2.4.90, see http://openbabel.sf.net
data_I
_chemical_name_common ''
_cell_length_a 20.451
_cell_length_b 24.817
_cell_length_c 15.846
_cell_angle_alpha 89.76
_cell_angle_beta 89.797
_cell_angle_gamma 96.677
_space_group_name_H-M_alt 'P 1'
_space_group_name_Hall 'P 1'
loop_
    _symmetry_equiv_pos_as_xyz
    x,y,z
loop_
    _atom_site_label
    _atom_site_type_symbol
    _atom_site_fract_x
    _atom_site_fract_y
    _atom_site_fract_z
    _atom_site_occupancy
    N0      N    0.31071   0.13830   0.84789   1.000
    N1      N    0.43961   0.61108   0.34697   1.000
    N2      N    0.43955   0.11150   0.34718   1.000
    N3      N    0.93951   0.61114   0.34762   1.000
    N4      N    0.93956   0.11109   0.34687   1.000
    N5      N    0.31076   0.63829   0.84797   1.000
    N6      N    0.81078   0.13827   0.84795   1.000
    N7      N    0.06042   0.38871   0.65246   1.000
    N8      N    0.06046   0.88851   0.65219   1.000
    N9      N    0.68961   0.36132   0.15056   1.000
    N10     N    0.68944   0.86177   0.15114   1.000
    N11     N    0.81048   0.63853   0.84880   1.000
    N12     N    0.18966   0.36180   0.15006   1.000
    N13     N    0.18962   0.86125   0.15052   1.000
    N14     N    0.56050   0.38855   0.65237   1.000
    N15     N    0.56038   0.88851   0.65187   1.000
    Zr16    Zr   0.32946   0.97920   0.60560   1.000
    O17     O    0.25024   0.94983   0.61563   1.000
    O18     O    0.35676   0.01860   0.52692   1.000
    Zr19    Zr   0.07940   0.72864   0.89529   1.000
    O20     O    0.10671   0.76815   0.97306   1.000
    O21     O    0.00021   0.69930   0.88522   1.000
    Zr22    Zr   0.42063   0.27104   0.10356   1.000
    O23     O    0.49983   0.30042   0.11389   1.000
    O24     O    0.39339   0.23145   0.02573   1.000
    Zr25    Zr   0.17072   0.02036   0.39273   1.000
    O26     O    0.14336   0.98106   0.47167   1.000
    O27     O    0.24986   0.04990   0.38309   1.000
    Zr28    Zr   0.32951   0.47909   0.60582   1.000
    O29     O    0.35681   0.51842   0.52703   1.000
    O30     O    0.25026   0.44981   0.61585   1.000
    Zr31    Zr   0.07942   0.22874   0.89539   1.000
    O32     O    0.10672   0.26838   0.97302   1.000
    O33     O    0.00033   0.19927   0.88503   1.000
    Zr34    Zr   0.57943   0.22863   0.89538   1.000
    O35     O    0.50031   0.19922   0.88501   1.000
    O36     O    0.60671   0.26817   0.97314   1.000
    Zr37    Zr   0.82941   0.47947   0.60701   1.000
    O38     O    0.75024   0.45002   0.61658   1.000
    O39     O    0.85671   0.51873   0.52811   1.000
    Zr40    Zr   0.92096   0.27084   0.10382   1.000
    O41     O    0.00006   0.30045   0.11392   1.000
    O42     O    0.89363   0.23132   0.02590   1.000
    Zr43    Zr   0.42095   0.77083   0.10389   1.000
    O44     O    0.39362   0.73133   0.02596   1.000
    O45     O    0.49999   0.80046   0.11426   1.000
    Zr46    Zr   0.67073   0.52035   0.39289   1.000
    O47     O    0.64337   0.48108   0.47186   1.000
    O48     O    0.74986   0.54978   0.38336   1.000
    Zr49    Zr   0.57924   0.72916   0.89573   1.000
    O50     O    0.50020   0.69955   0.88525   1.000
    O51     O    0.60655   0.76867   0.97354   1.000
    Zr52    Zr   0.92061   0.77100   0.10462   1.000
    O53     O    0.99983   0.80033   0.11457   1.000
    O54     O    0.89335   0.73153   0.02669   1.000
    Zr55    Zr   0.67047   0.02086   0.39313   1.000
    O56     O    0.74971   0.05011   0.38329   1.000
    O57     O    0.64318   0.98137   0.47181   1.000
    Zr58    Zr   0.82947   0.97911   0.60570   1.000
    O59     O    0.75022   0.94978   0.61560   1.000
    O60     O    0.85677   0.01843   0.52693   1.000
    Zr61    Zr   0.17064   0.52044   0.39309   1.000
    O62     O    0.24983   0.54984   0.38328   1.000
    O63     O    0.14330   0.48119   0.47202   1.000
    O64     O    0.92667   0.22395   0.17616   1.000
    O65     O    0.85318   0.29867   0.11595   1.000
    O66     O    0.42668   0.72393   0.17623   1.000
    O67     O    0.35318   0.79865   0.11599   1.000
    O68     O    0.60303   0.54828   0.38097   1.000
    O69     O    0.67652   0.47369   0.32070   1.000
    O70     O    0.57346   0.77596   0.82319   1.000
    O71     O    0.64698   0.70128   0.88359   1.000
    O72     O    0.07360   0.77563   0.82303   1.000
    O73     O    0.89710   0.95115   0.61775   1.000
    O74     O    0.60287   0.04884   0.38133   1.000
    O75     O    0.67629   0.97417   0.32105   1.000
    O76     O    0.14717   0.70080   0.88293   1.000
    O77     O    0.35300   0.29904   0.11549   1.000
    O78     O    0.42643   0.22419   0.17604   1.000
    O79     O    0.82374   0.02586   0.67777   1.000
    O80     O    0.17647   0.47389   0.32072   1.000
    O81     O    0.10295   0.54839   0.38137   1.000
    O82     O    0.10302   0.04830   0.38083   1.000
    O83     O    0.17653   0.97369   0.32058   1.000
    O84     O    0.64720   0.20079   0.88298   1.000
    O85     O    0.32376   0.52586   0.67786   1.000
    O86     O    0.39713   0.45115   0.61787   1.000
    O87     O    0.57363   0.27564   0.82315   1.000
    O88     O    0.32371   0.02594   0.67768   1.000
    O89     O    0.14717   0.20087   0.88297   1.000
    O90     O    0.89705   0.45149   0.61870   1.000
    O91     O    0.82359   0.52614   0.67906   1.000
    O92     O    0.92642   0.72403   0.17687   1.000
    O93     O    0.39707   0.95122   0.61760   1.000
    O94     O    0.85291   0.79896   0.11675   1.000
    O95     O    0.07359   0.27575   0.82317   1.000
loop_
    _geom_bond_atom_site_label_1
    _geom_bond_atom_site_label_2
    _geom_bond_distance
    _geom_bond_site_symmetry_2
    _ccdc_geom_bond_type
    Zr16   O17       1.70404      .   S
    N8     O17       4.03967      .   S
    Zr16   O18       1.63713  1_565   S
    N2     O18       3.91125      .   S
    Zr19   O20       1.63714      .   S
    N13    O20       3.91118  1_554   S
    Zr19   O21       1.70491      .   S
    N11    O21       4.04059  1_655   S
    Zr22   O23       1.70609      .   S
    N9     O23       4.04271      .   S
    Zr22   O24       1.63837      .   S
    N0     O24       3.91452  1_556   S
    Zr25   O26       1.63922  1_545   S
    N8     O26       3.91635      .   S
    Zr25   O27       1.70330      .   S
    N2     O27       4.03841      .   S
    Zr28   O29       1.63736      .   S
    N1     O29       3.91182      .   S
    Zr28   O30       1.70389      .   S
    N7     O30       4.03946      .   S
    Zr31   O32       1.63702      .   S
    N12    O32       3.91101  1_554   S
    Zr31   O33       1.70467      .   S
    N6     O33       4.04026  1_655   S
    Zr34   O35       1.70486      .   S
    N0     O35       4.04065      .   S
    Zr34   O36       1.63713      .   S
    N9     O36       3.91129  1_554   S
    Zr37   O38       1.70321      .   S
    N14    O38       4.03811      .   S
    Zr37   O39       1.63788      .   S
    N3     O39       3.91333      .   S
    Zr40   O41       1.70560  1_655   S
    N12    O41       4.04110      .   S
    Zr40   O42       1.63903      .   S
    N6     O42       3.91576  1_556   S
    Zr43   O44       1.63898      .   S
    N5     O44       3.91601  1_556   S
    Zr43   O45       1.70501      .   S
    N10    O45       4.03986      .   S
    Zr46   O47       1.63902      .   S
    N14    O47       3.91569      .   S
    Zr46   O48       1.70230      .   S
    N3     O48       4.03572      .   S
    Zr49   O50       1.70489      .   S
    N5     O50       4.04039      .   S
    Zr49   O51       1.63741      .   S
    N10    O51       3.91275  1_554   S
    Zr52   O53       1.70526      .   S
    N13    O53       4.04151  1_455   S
    Zr52   O54       1.63819      .   S
    N11    O54       3.91451  1_556   S
    Zr55   O56       1.70330      .   S
    N4     O56       4.03841      .   S
    Zr55   O57       1.63823  1_545   S
    N15    O57       3.91441      .   S
    Zr58   O59       1.70414      .   S
    N15    O59       4.03975      .   S
    Zr58   O60       1.63720  1_565   S
    N4     O60       3.91148      .   S
    Zr61   O62       1.70342      .   S
    N1     O62       4.03864      .   S
    Zr61   O63       1.63834      .   S
    N7     O63       3.91415      .   S
    Zr40   O64       1.64417      .   S
    N4     O64       3.91732      .   S
    Zr40   O65       1.63018      .   S
    N9     O65       3.88735      .   S
    Zr43   O66       1.64426      .   S
    N1     O66       3.91763      .   S
    Zr43   O67       1.62979      .   S
    N13    O67       3.88641      .   S
    Zr46   O68       1.62999      .   S
    N1     O68       3.88662      .   S
    Zr46   O69       1.64466      .   S
    N9     O69       3.91783      .   S
    Zr49   O70       1.64498      .   S
    N15    O70       3.91891      .   S
    Zr49   O71       1.63012      .   S
    N11    O71       3.88769      .   S
    N8     O72       3.91985      .   S
    Zr19   O72       1.64536      .   S
    N8     O73       3.88451  1_455   S
    Zr58   O73       1.62921      .   S
    Zr55   O74       1.62862      .   S
    N2     O74       3.88338      .   S
    Zr55   O75       1.64424  1_545   S
    N10    O75       3.91600      .   S
    Zr19   O76       1.63038      .   S
    N5     O76       3.88684      .   S
    Zr22   O77       1.62905      .   S
    N12    O77       3.88448      .   S
    Zr22   O78       1.64537      .   S
    N2     O78       3.91942      .   S
    Zr58   O79       1.64503  1_565   S
    N6     O79       3.91845      .   S
    Zr61   O80       1.64517      .   S
    N12    O80       3.91865      .   S
    Zr61   O81       1.62957      .   S
    N3     O81       3.88578  1_655   S
    Zr25   O82       1.63010      .   S
    N4     O82       3.88706  1_655   S
    Zr25   O83       1.64468  1_545   S
    N13    O83       3.91813      .   S
    N6     O84       3.88695      .   S
    Zr34   O84       1.63041      .   S
    N5     O85       3.91827      .   S
    Zr28   O85       1.64494      .   S
    N14    O86       3.88429      .   S
    Zr28   O86       1.62909      .   S
    N14    O87       3.91970      .   S
    Zr34   O87       1.64529      .   S
    N0     O88       3.91825      .   S
    Zr16   O88       1.64481  1_565   S
    N0     O89       3.88692      .   S
    Zr31   O89       1.63040      .   S
    Zr37   O90       1.62915      .   S
    N7     O90       3.88469  1_455   S
    Zr37   O91       1.64351      .   S
    N11    O91       3.91383      .   S
    N3     O92       3.91892      .   S
    Zr52   O92       1.64488      .   S
    Zr16   O93       1.62912      .   S
    N15    O93       3.88425      .   S
    Zr52   O94       1.63036      .   S
    N10    O94       3.88693      .   S
    N7     O95       3.92001      .   S
    Zr31   O95       1.64542      .   S
