# CIF file generated by openbabel 2.4.90, see http://openbabel.sf.net
data_I
_chemical_name_common ''
_cell_length_a 12.563
_cell_length_b 12.561
_cell_length_c 25.828
_cell_angle_alpha 90
_cell_angle_beta 90
_cell_angle_gamma 89.992
_space_group_name_H-M_alt 'P 1'
_space_group_name_Hall 'P 1'
loop_
    _symmetry_equiv_pos_as_xyz
    x,y,z
loop_
    _atom_site_label
    _atom_site_type_symbol
    _atom_site_fract_x
    _atom_site_fract_y
    _atom_site_fract_z
    _atom_site_occupancy
    Zr0     Zr   0.75001   0.75002   0.91625   1.000
    Zr1     Zr   0.25000   0.25000   0.41624   1.000
    Zr2     Zr   0.25000   0.25001   0.08376   1.000
    Zr3     Zr   0.75001   0.75002   0.58377   1.000
    Zr4     Zr   0.55017   0.70695   0.90827   1.000
    Zr5     Zr   0.94984   0.79311   0.90826   1.000
    Zr6     Zr   0.29307   0.05019   0.40825   1.000
    Zr7     Zr   0.20693   0.44982   0.40825   1.000
    Zr8     Zr   0.44983   0.29309   0.09175   1.000
    Zr9     Zr   0.05017   0.20693   0.09174   1.000
    Zr10    Zr   0.70694   0.94984   0.59170   1.000
    Zr11    Zr   0.79308   0.55020   0.59175   1.000
    O12     O    0.15008   0.22847   0.08775   1.000
    O13     O    0.34992   0.27155   0.08776   1.000
    O14     O    0.22847   0.34991   0.41224   1.000
    O15     O    0.27154   0.15010   0.41224   1.000
    O16     O    0.72847   0.84993   0.58774   1.000
    O17     O    0.77154   0.65011   0.58776   1.000
    O18     O    0.84992   0.77157   0.91226   1.000
    O19     O    0.65009   0.72848   0.91226   1.000
    N20     N    0.75001   0.25001   0.66697   1.000
    O21     O    0.74467   0.03496   0.77346   1.000
    O22     O    0.96562   0.24442   0.55968   1.000
    O23     O    0.53439   0.25559   0.55968   1.000
    O24     O    0.75535   0.46508   0.77346   1.000
    N25     N    0.25000   0.75002   0.33303   1.000
    O26     O    0.25534   0.96507   0.22653   1.000
    O27     O    0.46562   0.74444   0.44033   1.000
    O28     O    0.24466   0.53495   0.22655   1.000
    O29     O    0.03439   0.75561   0.44033   1.000
    N30     N    0.75001   0.25001   0.16693   1.000
    O31     O    0.96506   0.24467   0.27342   1.000
    O32     O    0.74442   0.03440   0.05966   1.000
    O33     O    0.75560   0.46564   0.05966   1.000
    O34     O    0.53496   0.25535   0.27342   1.000
    N35     N    0.79597   0.99083   0.57022   1.000
    O36     O    0.77371   0.98059   0.57559   1.000
    N37     N    0.49087   0.20410   0.07018   1.000
    O38     O    0.48061   0.22635   0.07557   1.000
    N39     N    0.25000   0.75002   0.83305   1.000
    O40     O    0.25560   0.96564   0.94034   1.000
    O41     O    0.03496   0.75536   0.72657   1.000
    O42     O    0.24441   0.53439   0.94034   1.000
    O43     O    0.46506   0.74468   0.72657   1.000
    N44     N    0.70405   0.50921   0.57022   1.000
    O45     O    0.72630   0.51946   0.57560   1.000
    N46     N    0.29596   0.49082   0.42979   1.000
    O47     O    0.27370   0.48057   0.42441   1.000
    N48     N    0.99088   0.70411   0.92983   1.000
    O49     O    0.98062   0.72636   0.92444   1.000
    N50     N    0.00913   0.29594   0.07018   1.000
    O51     O    0.01939   0.27369   0.07557   1.000
    N52     N    0.20404   0.00919   0.42979   1.000
    O53     O    0.22630   0.01944   0.42441   1.000
    N54     N    0.50914   0.79596   0.92982   1.000
    O55     O    0.51940   0.77370   0.92443   1.000
loop_
    _geom_bond_atom_site_label_1
    _geom_bond_atom_site_label_2
    _geom_bond_distance
    _geom_bond_site_symmetry_2
    _ccdc_geom_bond_type
    Zr2    O12       1.28825      .   S
    Zr9    O12       1.28825      .   S
    Zr2    O13       1.28825      .   S
    Zr8    O13       1.28825      .   S
    Zr7    O14       1.28790      .   S
    Zr1    O14       1.28790      .   S
    Zr6    O15       1.28790      .   S
    Zr1    O15       1.28790      .   S
    Zr3    O16       1.28784      .   S
    Zr10   O16       1.28784      .   S
    Zr3    O17       1.28789      .   S
    Zr11   O17       1.28789      .   S
    Zr5    O18       1.28825      .   S
    Zr0    O18       1.28825      .   S
    Zr4    O19       1.28825      .   S
    Zr0    O19       1.28825      .   S
    N20    O21       3.85565      .   S
    Zr0    O21       5.13965  1_565   S
    N20    O22       3.87567      .   S
    Zr1    O22       5.14726  1_455   S
    N20    O23       3.87572      .   S
    Zr1    O23       5.14731      .   S
    N20    O24       3.85578      .   S
    Zr0    O24       5.13976      .   S
    N25    O26       3.85590      .   S
    Zr2    O26       5.13924  1_545   S
    N25    O27       3.87580      .   S
    Zr3    O27       5.14741      .   S
    N25    O28       3.85569      .   S
    Zr2    O28       5.13967      .   S
    N25    O29       3.87575      .   S
    Zr3    O29       5.14734  1_655   S
    N30    O31       3.85603      .   S
    Zr1    O31       5.14059  1_455   S
    N30    O32       3.87510      .   S
    Zr0    O32       5.14616  1_566   S
    N30    O33       3.87521      .   S
    Zr0    O33       5.14626  1_556   S
    N30    O34       3.85606      .   S
    Zr1    O34       5.14065      .   S
    N35    O36       0.33764      .   S
    Zr10   O36       1.01292      .   S
    N37    O38       0.33779      .   S
    Zr8    O38       1.01338      .   S
    N39    O40       3.87537      .   S
    Zr2    O40       5.14644  1_544   S
    N39    O41       3.85579      .   S
    Zr3    O41       5.14029  1_655   S
    N39    O42       3.87547      .   S
    Zr2    O42       5.14655  1_554   S
    N39    O43       3.85580      .   S
    Zr3    O43       5.14036      .   S
    N44    O45       0.33778      .   S
    Zr11   O45       1.01333      .   S
    N46    O47       0.33780      .   S
    Zr7    O47       1.01339      .   S
    N48    O49       0.33780      .   S
    Zr5    O49       1.01339      .   S
    N50    O51       0.33779      .   S
    Zr9    O51       1.01337      .   S
    N52    O53       0.33780      .   S
    Zr6    O53       1.01340      .   S
    N54    O55       0.33778      .   S
    Zr4    O55       1.01333      .   S
