# CIF file generated by openbabel 2.4.90, see http://openbabel.sf.net
data_I
_chemical_name_common ''
_cell_length_a 13.254
_cell_length_b 13.186
_cell_length_c 13.156
_cell_angle_alpha 93.741
_cell_angle_beta 96.041
_cell_angle_gamma 83.687
_space_group_name_H-M_alt 'P 1'
_space_group_name_Hall 'P 1'
loop_
    _symmetry_equiv_pos_as_xyz
    x,y,z
loop_
    _atom_site_label
    _atom_site_type_symbol
    _atom_site_fract_x
    _atom_site_fract_y
    _atom_site_fract_z
    _atom_site_occupancy
    Zr0     Zr   0.16940   0.15982   0.72472   1.000
    Zr1     Zr   0.32513   0.72480   0.15899   1.000
    Zr2     Zr   0.82667   0.84049   0.27522   1.000
    Zr3     Zr   0.67124   0.27516   0.84001   1.000
    N4      N    0.49831   0.99975   0.50021   1.000
    O5      O    0.36404   0.06586   0.59091   1.000
    O6      O    0.63243   0.93410   0.40934   1.000
    N7      N    0.99846   0.49944   0.99945   1.000
    O8      O    0.13191   0.59056   0.06498   1.000
    O9      O    0.86485   0.40865   0.93415   1.000
    N10     N    0.49881   0.49984   0.49934   1.000
    O11     O    0.42898   0.59306   0.36143   1.000
    O12     O    0.56825   0.40664   0.63731   1.000
    N13     N    0.24837   0.18917   0.18979   1.000
    O14     O    0.05778   0.04461   0.24350   1.000
    O15     O    0.26993   0.99218   0.17687   1.000
    O16     O    0.43855   0.24330   0.04391   1.000
    O17     O    0.22540   0.17681   0.99261   1.000
    N18     N    0.99835   0.50006   0.49980   1.000
    O19     O    0.06709   0.36227   0.59321   1.000
    O20     O    0.92940   0.63793   0.40654   1.000
    N21     N    0.74997   0.81030   0.80986   1.000
    O22     O    0.93957   0.95520   0.75611   1.000
    O23     O    0.72735   0.00749   0.82248   1.000
    O24     O    0.55833   0.75729   0.95478   1.000
    O25     O    0.77172   0.82309   0.00698   1.000
loop_
    _geom_bond_atom_site_label_1
    _geom_bond_atom_site_label_2
    _geom_bond_distance
    _geom_bond_site_symmetry_2
    _ccdc_geom_bond_type
    N4     O5        2.30671  1_565   S
    Zr0    O5        3.35524      .   S
    N4     O6        2.30478      .   S
    Zr2    O6        3.35233      .   S
    N7     O8        2.30790  1_656   S
    Zr1    O8        3.35636      .   S
    N7     O9        2.30634      .   S
    Zr3    O9        3.35523      .   S
    N10    O11       2.31230      .   S
    Zr1    O11       3.36334      .   S
    N10    O12       2.31141      .   S
    Zr3    O12       3.36112      .   S
    N13    O14       3.48197      .   S
    Zr2    O14       4.36238  1_665   S
    N13    O15       2.57818  1_545   S
    Zr1    O15       3.51874      .   S
    N13    O16       3.48413      .   S
    Zr3    O16       4.36544  1_556   S
    N13    O17       2.57644  1_554   S
    Zr0    O17       3.52209      .   S
    N18    O19       2.30936  1_655   S
    Zr0    O19       3.35724      .   S
    N18    O20       2.30987      .   S
    Zr2    O20       3.35849      .   S
    N21    O22       3.47447      .   S
    Zr0    O22       4.35275  1_445   S
    N21    O23       2.58089  1_565   S
    Zr3    O23       3.52357      .   S
    N21    O24       3.48701      .   S
    Zr1    O24       4.37539  1_554   S
    N21    O25       2.57556  1_556   S
    Zr2    O25       3.52512      .   S
