# CIF file generated by openbabel 2.4.90, see http://openbabel.sf.net
data_I
_chemical_name_common ''
_cell_length_a 9.2075
_cell_length_b 11.1285
_cell_length_c 12.191
_cell_angle_alpha 85.613
_cell_angle_beta 89.858
_cell_angle_gamma 89.891
_space_group_name_H-M_alt 'P 1'
_space_group_name_Hall 'P 1'
loop_
    _symmetry_equiv_pos_as_xyz
    x,y,z
loop_
    _atom_site_label
    _atom_site_type_symbol
    _atom_site_fract_x
    _atom_site_fract_y
    _atom_site_fract_z
    _atom_site_occupancy
    Zn0     Zn   0.51431   0.23978   0.92121   1.000
    Zn1     Zn   0.68708   0.38011   0.27700   1.000
    Zn2     Zn   0.01857   0.26046   0.57414   1.000
    Zn3     Zn   0.81334   0.88001   0.77735   1.000
    Zn4     Zn   0.48667   0.76065   0.07451   1.000
    Zn5     Zn   0.31324   0.62049   0.71857   1.000
    Zn6     Zn   0.98120   0.73954   0.42187   1.000
    C7      C    0.24531   0.15395   0.99555   1.000
    C8      C    0.56050   0.03752   0.79984   1.000
    C9      C    0.29287   0.85340   0.76092   1.000
    C10     C    0.07024   0.05907   0.72689   1.000
    C11     C    0.74787   0.34570   0.50213   1.000
    Zn12    Zn   0.18722   0.11975   0.22211   1.000
    C13     C    0.06320   0.46179   0.69655   1.000
    C14     C    0.79482   0.64633   0.73695   1.000
    C15     C    0.57116   0.44060   0.76979   1.000
    C16     C    0.75721   0.84618   0.00283   1.000
    C17     C    0.43897   0.96192   0.19753   1.000
    C18     C    0.70773   0.14805   0.23671   1.000
    C19     C    0.92859   0.94141   0.27242   1.000
    C20     C    0.25272   0.65629   0.49343   1.000
    C21     C    0.93719   0.53855   0.29886   1.000
    C22     C    0.20550   0.35456   0.25940   1.000
    C23     C    0.42907   0.56014   0.22586   1.000
    O24     O    0.12639   0.13884   0.65694   1.000
    O25     O    0.36907   0.18704   0.02907   1.000
    O26     O    0.14258   0.12012   0.05956   1.000
    O27     O    0.33219   0.75288   0.81514   1.000
    O28     O    0.62189   0.09306   0.87485   1.000
    O29     O    0.95033   0.01069   0.71294   1.000
    O30     O    0.25141   0.86420   0.66427   1.000
    O31     O    0.62034   0.95948   0.74761   1.000
    O32     O    0.62567   0.36006   0.83976   1.000
    O33     O    0.87176   0.31348   0.46747   1.000
    O34     O    0.64380   0.37910   0.43946   1.000
    O35     O    0.83095   0.74685   0.68124   1.000
    O36     O    0.12504   0.40682   0.62094   1.000
    O37     O    0.45012   0.48964   0.78298   1.000
    O38     O    0.75650   0.63585   0.83445   1.000
    O39     O    0.12100   0.54141   0.75062   1.000
    O40     O    0.87145   0.86171   0.34200   1.000
    O41     O    0.63400   0.81307   0.96809   1.000
    O42     O    0.86108   0.87936   0.93963   1.000
    O43     O    0.66816   0.24733   0.18065   1.000
    O44     O    0.37878   0.90736   0.12133   1.000
    O45     O    0.05047   0.98966   0.28730   1.000
    O46     O    0.74901   0.14000   0.33347   1.000
    O47     O    0.38077   0.04189   0.25448   1.000
    O48     O    0.37462   0.64059   0.15577   1.000
    O49     O    0.12853   0.68743   0.52831   1.000
    O50     O    0.35737   0.62440   0.55606   1.000
    O51     O    0.16896   0.25448   0.31571   1.000
    O52     O    0.87507   0.59335   0.37444   1.000
    O53     O    0.54973   0.51057   0.21250   1.000
    O54     O    0.24379   0.36434   0.16192   1.000
    O55     O    0.87971   0.45885   0.24471   1.000
    Ts56    Ts   0.46016   0.21846   0.88444   1.000
    Ts57    Ts   0.96424   0.28148   0.61132   1.000
    Ts58    Ts   0.54039   0.78185   0.11173   1.000
    Ts59    Ts   0.03555   0.71880   0.38459   1.000
    Og60    Og   0.23565   0.15465   0.95409   1.000
    Og61    Og   0.50746   0.04568   0.79017   1.000
    Og62    Og   0.29556   0.89064   0.78272   1.000
    Og63    Og   0.09884   0.05150   0.76284   1.000
    Og64    Og   0.73849   0.34499   0.54357   1.000
    Og65    Og   0.01028   0.45347   0.70649   1.000
    Og66    Og   0.79755   0.60890   0.71538   1.000
    Og67    Og   0.60049   0.44822   0.73415   1.000
    Og68    Og   0.76620   0.84566   0.04433   1.000
    Og69    Og   0.49189   0.95372   0.20746   1.000
    Og70    Og   0.70511   0.11023   0.21576   1.000
    Og71    Og   0.90018   0.94910   0.23642   1.000
    Og72    Og   0.26196   0.65681   0.45196   1.000
    Og73    Og   0.99010   0.54702   0.28900   1.000
    Og74    Og   0.20281   0.39207   0.28083   1.000
    Og75    Og   0.39979   0.55270   0.26155   1.000
loop_
    _geom_bond_atom_site_label_1
    _geom_bond_atom_site_label_2
    _geom_bond_distance
    _geom_bond_site_symmetry_2
    _ccdc_geom_bond_type
    C16    O42       1.26441  1_554   S
    C16    O41       1.27670  1_554   S
    O25    Zn0       1.93341  1_554   S
    O25    C7        1.27591  1_554   S
    O26    Zn12      2.02456      .   S
    O26    C7        1.26421  1_554   S
    Zn4    O44       2.02775      .   S
    Zn4    O48       1.90494      .   S
    Zn4    O41       1.93441  1_554   S
    O44    C17       1.27626      .   S
    O48    C23       1.29086      .   S
    O54    C22       1.23567      .   S
    O43    C18       1.30566      .   S
    O43    Zn1       1.96489      .   S
    C17    O47       1.28532  1_565   S
    O53    C23       1.25525      .   S
    O53    Zn1       2.03685      .   S
    Zn12   O47       2.00688      .   S
    Zn12   O45       2.03443  1_545   S
    Zn12   O51       1.95920      .   S
    C18    O46       1.23694      .   S
    O55    Zn1       2.00458      .   S
    O55    C21       1.26316      .   S
    C22    O51       1.30694      .   S
    C19    O45       1.26442  1_655   S
    C19    O40       1.29133      .   S
    Zn1    O34       2.01844      .   S
    C21    O52       1.27675      .   S
    O40    Zn6       1.90124      .   S
    O52    Zn6       2.02206      .   S
    Zn6    O49       1.93670  1_655   S
    O34    C11       1.26450      .   S
    O33    C11       1.27577      .   S
    O33    Zn2       1.93767  1_655   S
    C20    O49       1.27550      .   S
    C20    O50       1.26424      .   S
    O50    Zn5       2.01857      .   S
    Zn2    O36       2.02256      .   S
    Zn2    O24       1.90453      .   S
    O36    C13       1.27681      .   S
    O24    C10       1.29082      .   S
    O30    C9        1.23644      .   S
    O35    C14       1.30662      .   S
    O35    Zn3       1.96431      .   S
    C13    O39       1.26317      .   S
    O29    C10       1.24701  1_655   S
    O29    Zn3       2.03714  1_545   S
    Zn5    O39       2.00253      .   S
    Zn5    O37       2.03675      .   S
    Zn5    O27       1.96328      .   S
    C14    O38       1.23605      .   S
    O31    Zn3       2.00483      .   S
    O31    C8        1.24272  1_565   S
    C9     O27       1.30611      .   S
    C15    O37       1.25534      .   S
    C15    O32       1.29078      .   S
    Zn3    O42       2.02726      .   S
    C8     O28       1.27601      .   S
    O32    Zn0       1.90415      .   S
    O28    Zn0       2.02454      .   S
    Zn0    Ts56      0.72359      .   S
    Zn2    Ts57      0.72464  1_455   S
    Zn4    Ts58      0.72400      .   S
    Zn6    Ts59      0.72445  1_655   S
    C7     Og60      0.51287      .   S
    C8     Og61      0.50900      .   S
    C9     Og62      0.50986      .   S
    C10    Og63      0.51316      .   S
    C11    Og64      0.51186      .   S
    C13    Og65      0.50876      .   S
    C14    Og66      0.50979      .   S
    C15    Og67      0.51264      .   S
    C16    Og68      0.51238      .   S
    C17    Og69      0.50873      .   S
    C18    Og70      0.50938      .   S
    C19    Og71      0.51296      .   S
    C20    Og72      0.51209      .   S
    C21    Og73      0.50875      .   S
    C22    Og74      0.50960      .   S
    C23    Og75      0.51272      .   S
