# CIF file generated by openbabel 2.4.90, see http://openbabel.sf.net
data_I
_chemical_name_common ''
_cell_length_a 20.255
_cell_length_b 18.421
_cell_length_c 18.542
_cell_angle_alpha 89.999
_cell_angle_beta 90.023
_cell_angle_gamma 89.947
_space_group_name_H-M_alt 'P 1'
_space_group_name_Hall 'P 1'
loop_
    _symmetry_equiv_pos_as_xyz
    x,y,z
loop_
    _atom_site_label
    _atom_site_type_symbol
    _atom_site_fract_x
    _atom_site_fract_y
    _atom_site_fract_z
    _atom_site_occupancy
    Lv0     Lv   0.43176   0.13404   0.21568   1.000
    Lv1     Lv   0.73765   0.09360   0.13828   1.000
    Lv2     Lv   0.79904   0.13920   0.92980   1.000
    Lv3     Lv   0.91955   0.00179   0.82739   1.000
    Lv4     Lv   0.11370   0.18594   0.80537   1.000
    Lv5     Lv   0.64041   0.51257   0.56040   1.000
    Lv6     Lv   0.35952   0.98743   0.56041   1.000
    Lv7     Lv   0.41956   0.00179   0.82739   1.000
    Lv8     Lv   0.86388   0.81435   0.69362   1.000
    Lv9     Lv   0.56823   0.86595   0.78431   1.000
    Lv10    Lv   0.56821   0.36594   0.21570   1.000
    Lv11    Lv   0.63609   0.68565   0.69367   1.000
    Lv12    Lv   0.76232   0.90639   0.86168   1.000
    Lv13    Lv   0.68209   0.36585   0.71585   1.000
    Lv14    Lv   0.76226   0.40619   0.13831   1.000
    Lv15    Lv   0.95012   0.63920   0.57167   1.000
    Lv16    Lv   0.73771   0.59381   0.86167   1.000
    Lv17    Lv   0.66951   0.49830   0.32740   1.000
    Lv18    Lv   0.06823   0.86595   0.78430   1.000
    Lv19    Lv   0.30046   0.63758   0.07166   1.000
    Lv20    Lv   0.23766   0.09360   0.13828   1.000
    Lv21    Lv   0.89057   0.98720   0.06041   1.000
    Lv22    Lv   0.48777   0.40639   0.63827   1.000
    Lv23    Lv   0.86389   0.31435   0.30625   1.000
    Lv24    Lv   0.38610   0.31438   0.80683   1.000
    Lv25    Lv   0.45014   0.13923   0.42829   1.000
    Lv26    Lv   0.01222   0.59360   0.36170   1.000
    Lv27    Lv   0.41951   0.50163   0.17263   1.000
    Lv28    Lv   0.91951   0.50162   0.17263   1.000
    Lv29    Lv   0.11389   0.68561   0.19315   1.000
    Lv30    Lv   0.26227   0.40619   0.13831   1.000
    Lv31    Lv   0.39058   0.98720   0.06041   1.000
    Lv32    Lv   0.18173   0.86571   0.28294   1.000
    Lv33    Lv   0.10942   0.01280   0.93957   1.000
    Lv34    Lv   0.04985   0.86076   0.57169   1.000
    Lv35    Lv   0.85957   0.48743   0.43957   1.000
    Lv36    Lv   0.58047   0.49837   0.82733   1.000
    Lv37    Lv   0.54984   0.86076   0.57169   1.000
    Lv38    Lv   0.68172   0.86571   0.28279   1.000
    Lv39    Lv   0.54986   0.36079   0.42831   1.000
    Lv40    Lv   0.04987   0.36079   0.42831   1.000
    Lv41    Lv   0.10942   0.51264   0.06046   1.000
    Lv42    Lv   0.98776   0.40639   0.63828   1.000
    Lv43    Lv   0.13610   0.68565   0.69369   1.000
    Lv44    Lv   0.69953   0.36242   0.92832   1.000
    Lv45    Lv   0.93175   0.13404   0.21566   1.000
    Lv46    Lv   0.51213   0.09350   0.63818   1.000
    Lv47    Lv   0.80045   0.63758   0.07166   1.000
    Lv48    Lv   0.64046   0.01256   0.43955   1.000
    Lv49    Lv   0.33050   0.00175   0.32729   1.000
    Lv50    Lv   0.20095   0.86080   0.07019   1.000
    Lv51    Lv   0.06822   0.36594   0.21571   1.000
    Lv52    Lv   0.36390   0.31435   0.30630   1.000
    Lv53    Lv   0.31826   0.13428   0.71705   1.000
    Lv54    Lv   0.83050   0.00175   0.32729   1.000
    Lv55    Lv   0.38629   0.81405   0.19461   1.000
    Lv56    Lv   0.14042   0.51257   0.56040   1.000
    Lv57    Lv   0.85951   0.98743   0.56041   1.000
    Lv58    Lv   0.51221   0.59360   0.36170   1.000
    Lv59    Lv   0.88629   0.81405   0.19461   1.000
    Lv60    Lv   0.60942   0.51264   0.06046   1.000
    Lv61    Lv   0.98785   0.90649   0.36179   1.000
    Lv62    Lv   0.48786   0.90649   0.36179   1.000
    Lv63    Lv   0.13611   0.18564   0.30615   1.000
    Lv64    Lv   0.39057   0.48735   0.93952   1.000
    Lv65    Lv   0.45013   0.63920   0.57167   1.000
    Lv66    Lv   0.16952   0.49830   0.32740   1.000
    Lv67    Lv   0.88609   0.31438   0.80683   1.000
    Lv68    Lv   0.60941   0.01280   0.93957   1.000
    Lv69    Lv   0.14047   0.01256   0.43955   1.000
    Lv70    Lv   0.35957   0.48743   0.43940   1.000
    Lv71    Lv   0.95014   0.13924   0.42829   1.000
    Lv72    Lv   0.61389   0.68561   0.19314   1.000
    Lv73    Lv   0.31789   0.63414   0.28414   1.000
    Lv74    Lv   0.81788   0.63414   0.28414   1.000
    Lv75    Lv   0.66948   0.99824   0.67270   1.000
    Lv76    Lv   0.08043   0.99821   0.17258   1.000
    Lv77    Lv   0.36388   0.81435   0.69385   1.000
    Lv78    Lv   0.93177   0.63405   0.78427   1.000
    Lv79    Lv   0.08048   0.49837   0.82735   1.000
    Lv80    Lv   0.81826   0.13428   0.71705   1.000
    Lv81    Lv   0.16949   0.99824   0.67270   1.000
    Lv82    Lv   0.19953   0.36242   0.92832   1.000
    Lv83    Lv   0.23772   0.59381   0.86167   1.000
    Lv84    Lv   0.26233   0.90639   0.86168   1.000
    Lv85    Lv   0.29904   0.13920   0.92978   1.000
    Lv86    Lv   0.63610   0.18564   0.30616   1.000
    Lv87    Lv   0.01213   0.09350   0.63818   1.000
    Lv88    Lv   0.33048   0.50170   0.67239   1.000
    Lv89    Lv   0.70094   0.86080   0.07018   1.000
    Lv90    Lv   0.43178   0.63405   0.78428   1.000
    Lv91    Lv   0.83047   0.50170   0.67239   1.000
    Lv92    Lv   0.58043   0.99821   0.17258   1.000
    Lv93    Lv   0.61369   0.18594   0.80537   1.000
    Lv94    Lv   0.18210   0.36585   0.71585   1.000
    Lv95    Lv   0.89056   0.48735   0.93952   1.000
