# CIF file generated by openbabel 2.4.90, see http://openbabel.sf.net
data_I
_chemical_name_common ''
_cell_length_a 21.933
_cell_length_b 21.947
_cell_length_c 15.978
_cell_angle_alpha 89.996
_cell_angle_beta 90
_cell_angle_gamma 89.962
_space_group_name_H-M_alt 'P 1'
_space_group_name_Hall 'P 1'
loop_
    _symmetry_equiv_pos_as_xyz
    x,y,z
loop_
    _atom_site_label
    _atom_site_type_symbol
    _atom_site_fract_x
    _atom_site_fract_y
    _atom_site_fract_z
    _atom_site_occupancy
    N0      N    0.33084   0.08182   0.10869   1.000
    N1      N    0.08078   0.58208   0.39089   1.000
    N2      N    0.66913   0.33197   0.39110   1.000
    N3      N    0.66927   0.83201   0.39116   1.000
    N4      N    0.16926   0.83190   0.39121   1.000
    N5      N    0.83089   0.66805   0.60834   1.000
    N6      N    0.58090   0.16803   0.89119   1.000
    N7      N    0.33089   0.58209   0.10865   1.000
    N8      N    0.41900   0.41787   0.60867   1.000
    N9      N    0.66921   0.91814   0.89078   1.000
    N10     N    0.16925   0.91820   0.89080   1.000
    N11     N    0.16921   0.41796   0.89094   1.000
    N12     N    0.66914   0.41792   0.89088   1.000
    N13     N    0.08078   0.66811   0.89115   1.000
    N14     N    0.58104   0.66803   0.89117   1.000
    N15     N    0.08067   0.16809   0.89118   1.000
    N16     N    0.91930   0.41791   0.60862   1.000
    N17     N    0.91931   0.91819   0.60868   1.000
    N18     N    0.83085   0.16809   0.60820   1.000
    N19     N    0.58107   0.58213   0.39088   1.000
    N20     N    0.33077   0.16799   0.60833   1.000
    N21     N    0.41916   0.83196   0.10831   1.000
    N22     N    0.41902   0.33196   0.10830   1.000
    N23     N    0.83091   0.58204   0.10858   1.000
    N24     N    0.91940   0.83191   0.10831   1.000
    N25     N    0.58101   0.08193   0.39070   1.000
    N26     N    0.91929   0.33190   0.10830   1.000
    N27     N    0.83086   0.08181   0.10858   1.000
    N28     N    0.16923   0.33193   0.39116   1.000
    N29     N    0.33092   0.66804   0.60840   1.000
    N30     N    0.08074   0.08180   0.39082   1.000
    N31     N    0.41905   0.91807   0.60869   1.000
    Zr32    Zr   0.75020   0.75019   0.99973   1.000
    O33     O    0.76462   0.71595   0.01625   1.000
    O34     O    0.78287   0.76629   0.01932   1.000
    O35     O    0.71751   0.73403   0.98013   1.000
    O36     O    0.73061   0.75966   0.07399   1.000
    O37     O    0.76971   0.74066   0.92546   1.000
    O38     O    0.73573   0.78441   0.98319   1.000
    Zr39    Zr   0.24988   0.24979   0.99979   1.000
    O40     O    0.28257   0.26595   0.01939   1.000
    O41     O    0.23546   0.28403   0.98326   1.000
    O42     O    0.26947   0.24032   0.92549   1.000
    O43     O    0.26433   0.21557   0.01631   1.000
    O44     O    0.23036   0.25932   0.07405   1.000
    O45     O    0.21720   0.23369   0.98018   1.000
    Zr46    Zr   0.00008   0.49999   0.99977   1.000
    O47     O    0.98047   0.49052   0.92557   1.000
    O48     O    0.96740   0.51615   0.01944   1.000
    O49     O    0.01451   0.53423   0.98331   1.000
    O50     O    0.01965   0.50946   0.07396   1.000
    O51     O    0.98562   0.46576   0.01622   1.000
    O52     O    0.03274   0.48383   0.98010   1.000
    Zr53    Zr   0.75020   0.00002   0.49970   1.000
    O54     O    0.71754   0.01617   0.47978   1.000
    O55     O    0.78284   0.98390   0.51941   1.000
    O56     O    0.76461   0.03426   0.51612   1.000
    O57     O    0.73574   0.96579   0.48327   1.000
    O58     O    0.76978   0.00943   0.42552   1.000
    O59     O    0.73054   0.99059   0.57386   1.000
    Zr60    Zr   0.24989   0.50006   0.49977   1.000
    O61     O    0.21725   0.51624   0.48008   1.000
    O62     O    0.28255   0.48386   0.51946   1.000
    O63     O    0.23545   0.46583   0.48329   1.000
    O64     O    0.26439   0.53427   0.51624   1.000
    O65     O    0.26955   0.50952   0.42559   1.000
    O66     O    0.23032   0.49058   0.57397   1.000
    Zr67    Zr   0.00002   0.75017   0.49978   1.000
    O68     O    0.96734   0.73401   0.51938   1.000
    O69     O    0.01444   0.71594   0.48324   1.000
    O70     O    0.01958   0.74065   0.57402   1.000
    O71     O    0.98045   0.75963   0.42553   1.000
    O72     O    0.98561   0.78439   0.51631   1.000
    O73     O    0.03269   0.76628   0.48017   1.000
    Zr74    Zr   0.50002   0.99998   0.99974   1.000
    O75     O    0.46737   0.01612   0.01944   1.000
    O76     O    0.53269   0.98385   0.98001   1.000
    O77     O    0.51965   0.00942   0.07391   1.000
    O78     O    0.48556   0.96575   0.01615   1.000
    O79     O    0.48040   0.99056   0.92556   1.000
    O80     O    0.51449   0.03422   0.98332   1.000
    Zr81    Zr   0.75018   0.49994   0.49975   1.000
    O82     O    0.73568   0.46573   0.48328   1.000
    O83     O    0.78283   0.48375   0.51943   1.000
    O84     O    0.73052   0.49048   0.57393   1.000
    O85     O    0.76464   0.53416   0.51621   1.000
    O86     O    0.71752   0.51614   0.48005   1.000
    O87     O    0.76975   0.50942   0.42553   1.000
    Zr88    Zr   0.50002   0.50001   0.99978   1.000
    O89     O    0.46737   0.51621   0.01945   1.000
    O90     O    0.48040   0.49053   0.92558   1.000
    O91     O    0.53267   0.48380   0.98010   1.000
    O92     O    0.48550   0.46579   0.01623   1.000
    O93     O    0.51964   0.50948   0.07397   1.000
    O94     O    0.51454   0.53422   0.98332   1.000
    Zr95    Zr   0.00006   0.99999   0.99976   1.000
    O96     O    0.98566   0.96574   0.01617   1.000
    O97     O    0.01966   0.00941   0.07392   1.000
    O98     O    0.96739   0.01610   0.01945   1.000
    O99     O    0.01445   0.03424   0.98334   1.000
    O100    O    0.03273   0.98389   0.98006   1.000
    O101    O    0.98043   0.99057   0.92559   1.000
    Zr102   Zr   0.75017   0.24988   0.99976   1.000
    O103    O    0.76458   0.21566   0.01627   1.000
    O104    O    0.71747   0.23375   0.98015   1.000
    O105    O    0.76968   0.24043   0.92547   1.000
    O106    O    0.78284   0.26603   0.01935   1.000
    O107    O    0.73057   0.25940   0.07400   1.000
    O108    O    0.73569   0.28412   0.98323   1.000
    Zr109   Zr   0.24987   0.99998   0.49970   1.000
    O110    O    0.23546   0.96575   0.48331   1.000
    O111    O    0.28253   0.98384   0.51945   1.000
    O112    O    0.23028   0.99057   0.57390   1.000
    O113    O    0.21722   0.01610   0.47999   1.000
    O114    O    0.26953   0.00941   0.42556   1.000
    O115    O    0.26432   0.03422   0.51615   1.000
    Zr116   Zr   0.24990   0.75013   0.99977   1.000
    O117    O    0.28259   0.76625   0.01938   1.000
    O118    O    0.21722   0.73398   0.98016   1.000
    O119    O    0.26950   0.74061   0.92552   1.000
    O120    O    0.23038   0.75958   0.07404   1.000
    O121    O    0.26436   0.71589   0.01630   1.000
    O122    O    0.23549   0.78435   0.98325   1.000
    Zr123   Zr   0.50006   0.75015   0.49978   1.000
    O124    O    0.53273   0.76631   0.48015   1.000
    O125    O    0.48557   0.78434   0.51632   1.000
    O126    O    0.51456   0.71594   0.48323   1.000
    O127    O    0.46739   0.73396   0.51939   1.000
    O128    O    0.48049   0.75961   0.42551   1.000
    O129    O    0.51964   0.74062   0.57403   1.000
    Zr130   Zr   0.00011   0.24984   0.49972   1.000
    O131    O    0.98568   0.28407   0.51626   1.000
    O132    O    0.98052   0.25935   0.42546   1.000
    O133    O    0.03278   0.26599   0.48012   1.000
    O134    O    0.01451   0.21562   0.48319   1.000
    O135    O    0.96743   0.23373   0.51934   1.000
    O136    O    0.01965   0.24038   0.57397   1.000
    Zr137   Zr   0.49999   0.24984   0.49973   1.000
    O138    O    0.48549   0.28405   0.51628   1.000
    O139    O    0.46732   0.23369   0.51934   1.000
    O140    O    0.51956   0.24038   0.57400   1.000
    O141    O    0.48041   0.25937   0.42547   1.000
    O142    O    0.51448   0.21565   0.48318   1.000
    O143    O    0.53265   0.26604   0.48012   1.000
loop_
    _geom_bond_atom_site_label_1
    _geom_bond_atom_site_label_2
    _geom_bond_distance
    _geom_bond_site_symmetry_2
    _ccdc_geom_bond_type
    Zr32   O33       0.85687  1_556   S
    N23    O33       3.59461      .   S
    Zr32   O34       0.85837  1_556   S
    N24    O34       3.61498      .   S
    Zr32   O35       0.85931      .   S
    N14    O35       3.61702      .   S
    Zr32   O36       1.27888  1_556   S
    N3     O36       5.47829      .   S
    Zr32   O37       1.27873      .   S
    N5     O37       5.47831      .   S
    Zr32   O38       0.85675      .   S
    N9     O38       3.59410      .   S
    Zr39   O40       0.85925  1_556   S
    N22    O40       3.61665      .   S
    Zr39   O41       0.85689      .   S
    N11    O41       3.59459      .   S
    Zr39   O42       1.27938      .   S
    N20    O42       5.47786      .   S
    Zr39   O43       0.85667  1_556   S
    N0     O43       3.59390      .   S
    Zr39   O44       1.27856  1_556   S
    N28    O44       5.47800      .   S
    Zr39   O45       0.85843      .   S
    N15    O45       3.61509      .   S
    Zr46   O47       1.27826  1_455   S
    N16    O47       5.47626      .   S
    Zr46   O48       0.85892  1_456   S
    N23    O48       3.61620      .   S
    Zr46   O49       0.85685      .   S
    N13    O49       3.59440      .   S
    Zr46   O50       1.27783  1_556   S
    N1     O50       5.47585      .   S
    Zr46   O51       0.85689  1_456   S
    N26    O51       3.59406      .   S
    Zr46   O52       0.85872      .   S
    N11    O52       3.61581      .   S
    Zr53   O54       0.86001      .   S
    N25    O54       3.61521      .   S
    Zr53   O55       0.85832  1_545   S
    N17    O55       3.61487      .   S
    Zr53   O56       0.85655      .   S
    N18    O56       3.59289      .   S
    Zr53   O57       0.85687  1_545   S
    N3     O57       3.59415      .   S
    Zr53   O58       1.27750      .   S
    N27    O58       5.47400      .   S
    Zr53   O59       1.27790  1_545   S
    N9     O59       5.47543      .   S
    Zr60   O61       0.85865      .   S
    N1     O61       3.61565      .   S
    Zr60   O62       0.85911      .   S
    N8     O62       3.61667      .   S
    Zr60   O63       0.85683      .   S
    N28    O63       3.59433      .   S
    Zr60   O64       0.85706      .   S
    N29    O64       3.59488      .   S
    Zr60   O65       1.27820      .   S
    N7     O65       5.47668      .   S
    Zr60   O66       1.27794      .   S
    N11    O66       5.47610      .   S
    Zr67   O68       0.85901  1_455   S
    N5     O68       3.61635      .   S
    Zr67   O69       0.85676      .   S
    N1     O69       3.59434      .   S
    Zr67   O70       1.27855      .   S
    N13    O70       5.47794      .   S
    Zr67   O71       1.27857  1_455   S
    N24    O71       5.47681      .   S
    Zr67   O72       0.85635  1_455   S
    N17    O72       3.59322      .   S
    Zr67   O73       0.85855      .   S
    N4     O73       3.61540      .   S
    Zr74   O75       0.85868  1_566   S
    N0     O75       3.61568      .   S
    Zr74   O76       0.85882      .   S
    N9     O76       3.61566      .   S
    Zr74   O77       1.27786  1_566   S
    N25    O77       5.47428      .   S
    Zr74   O78       0.85679  1_556   S
    N21    O78       3.59400      .   S
    Zr74   O79       1.27791      .   S
    N31    O79       5.47528      .   S
    Zr74   O80       0.85691  1_565   S
    N6     O80       3.59429      .   S
    Zr81   O82       0.85708      .   S
    N2     O82       3.59506      .   S
    Zr81   O83       0.85870      .   S
    N16    O83       3.61571      .   S
    Zr81   O84       1.27827      .   S
    N12    O84       5.47689      .   S
    Zr81   O85       0.85679      .   S
    N5     O85       3.59445      .   S
    Zr81   O86       0.85919      .   S
    N19    O86       3.61650      .   S
    Zr81   O87       1.27823      .   S
    N23    O87       5.47609      .   S
    Zr88   O89       0.85893  1_556   S
    N7     O89       3.61617      .   S
    Zr88   O90       1.27838      .   S
    N8     O90       5.47722      .   S
    Zr88   O91       0.85894      .   S
    N12    O91       3.61627      .   S
    Zr88   O92       0.85708  1_556   S
    N22    O92       3.59480      .   S
    Zr88   O93       1.27829  1_556   S
    N19    O93       5.47723      .   S
    Zr88   O94       0.85714      .   S
    N14    O94       3.59520      .   S
    Zr95   O96       0.85658  1_456   S
    N24    O96       3.59331      .   S
    Zr95   O97       1.27743  1_566   S
    N30    O97       5.47360      .   S
    Zr95   O98       0.85858  1_466   S
    N27    O98       3.61528      .   S
    Zr95   O99       0.85659  1_565   S
    N15    O99       3.59332      .   S
    Zr95   O100      0.85844      .   S
    N10    O100      3.61559      .   S
    Zr95   O101      1.27781  1_455   S
    N17    O101      5.47391      .   S
    Zr102  O103      0.85635  1_556   S
    N27    O103      3.59324      .   S
    Zr102  O104      0.85907      .   S
    N6     O104      3.61648      .   S
    Zr102  O105      1.27873      .   S
    N18    O105      5.47876      .   S
    Zr102  O106      0.85879  1_556   S
    N26    O106      3.61550      .   S
    Zr102  O107      1.27890  1_556   S
    N2     O107      5.47909      .   S
    Zr102  O108      0.85717      .   S
    N12    O108      3.59511      .   S
    Zr109  O110      0.85634      .   S
    N4     O110      3.59297      .   S
    Zr109  O111      0.85897      .   S
    N31    O111      3.61624      .   S
    Zr109  O112      1.27778      .   S
    N10    O112      5.47312      .   S
    Zr109  O113      0.85825  1_565   S
    N30    O113      3.61433      .   S
    Zr109  O114      1.27757  1_565   S
    N0     O114      5.47446      .   S
    Zr109  O115      0.85700  1_565   S
    N20    O115      3.59440      .   S
    Zr116  O117      0.85897  1_556   S
    N21    O117      3.61626      .   S
    Zr116  O118      0.85883      .   S
    N13    O118      3.61598      .   S
    Zr116  O119      1.27902      .   S
    N29    O119      5.47937      .   S
    Zr116  O120      1.27846  1_556   S
    N4     O120      5.47689      .   S
    Zr116  O121      0.85709  1_556   S
    N7     O121      3.59490      .   S
    Zr116  O122      0.85638      .   S
    N10    O122      3.59389      .   S
    Zr123  O124      0.85902      .   S
    N3     O124      3.61606      .   S
    Zr123  O125      0.85655      .   S
    N31    O125      3.59389      .   S
    Zr123  O126      0.85705      .   S
    N19    O126      3.59511      .   S
    Zr123  O127      0.85912      .   S
    N29    O127      3.61668      .   S
    Zr123  O128      1.27887      .   S
    N21    O128      5.47840      .   S
    Zr123  O129      1.27883      .   S
    N14    O129      5.47951      .   S
    Zr130  O131      0.85684  1_455   S
    N16    O131      3.59445      .   S
    Zr130  O132      1.27911  1_455   S
    N26    O132      5.47859      .   S
    Zr130  O133      0.85883      .   S
    N28    O133      3.61601      .   S
    Zr130  O134      0.85624      .   S
    N30    O134      3.59297      .   S
    Zr130  O135      0.85875  1_455   S
    N18    O135      3.61524      .   S
    Zr130  O136      1.27827      .   S
    N15    O136      5.47660      .   S
    Zr137  O138      0.85702      .   S
    N8     O138      3.59520      .   S
    Zr137  O139      0.85885      .   S
    N20    O139      3.61606      .   S
    Zr137  O140      1.27888      .   S
    N6     O140      5.47834      .   S
    Zr137  O141      1.27890      .   S
    N22    O141      5.47993      .   S
    Zr137  O142      0.85659      .   S
    N25    O142      3.59449      .   S
    Zr137  O143      0.85917      .   S
    N2     O143      3.61685      .   S
