# CIF file generated by openbabel 2.4.90, see http://openbabel.sf.net
data_I
_chemical_name_common ''
_cell_length_a 13.07
_cell_length_b 24.209
_cell_length_c 15.042
_cell_angle_alpha 90.033
_cell_angle_beta 90.136
_cell_angle_gamma 90.336
_space_group_name_H-M_alt 'P 1'
_space_group_name_Hall 'P 1'
loop_
    _symmetry_equiv_pos_as_xyz
    x,y,z
loop_
    _atom_site_label
    _atom_site_type_symbol
    _atom_site_fract_x
    _atom_site_fract_y
    _atom_site_fract_z
    _atom_site_occupancy
    Zr0     Zr   0.84373   0.06736   0.51905   1.000
    Zr1     Zr   0.73341   0.97712   0.60571   1.000
    Zr2     Zr   0.15515   0.93282   0.00000   1.000
    Zr3     Zr   0.26254   0.02330   0.10661   1.000
    Zr4     Zr   0.65319   0.56917   0.52327   1.000
    Zr5     Zr   0.76059   0.47921   0.61290   1.000
    Zr6     Zr   0.34262   0.43296   0.00000   1.000
    Zr7     Zr   0.23507   0.52302   0.11035   1.000
    Zr8     Zr   0.98984   0.25028   0.86598   1.000
    Zr9     Zr   0.00000   0.75039   0.36525   1.000
    Zr10    Zr   0.50892   0.75113   0.86884   1.000
    Zr11    Zr   0.49134   0.25023   0.36724   1.000
    Zr12    Zr   0.01133   0.26003   0.71172   1.000
    Zr13    Zr   0.97544   0.24227   0.02047   1.000
    Zr14    Zr   0.98656   0.74048   0.21080   1.000
    Zr15    Zr   0.02063   0.75871   0.51986   1.000
    Zr16    Zr   0.48698   0.75937   0.71427   1.000
    Zr17    Zr   0.52341   0.74444   0.02349   1.000
    Zr18    Zr   0.51391   0.24215   0.21280   1.000
    Zr19    Zr   0.47602   0.25666   0.52186   1.000
    O20     O    0.98264   0.24628   0.94323   1.000
    O21     O    0.51617   0.74779   0.94617   1.000
    O22     O    0.99328   0.74543   0.28803   1.000
    O23     O    0.50262   0.24619   0.29002   1.000
    O24     O    0.01031   0.75455   0.44256   1.000
    O25     O    0.48368   0.25345   0.44455   1.000
    O26     O    0.00059   0.25516   0.78885   1.000
    O27     O    0.49795   0.75525   0.79156   1.000
    N28     N    0.99719   0.08430   0.83225   1.000
    O29     O    0.93615   0.08433   0.70079   1.000
    O30     O    0.89430   0.04174   0.73751   1.000
    O31     O    0.06056   0.02196   0.90244   1.000
    O32     O    0.10440   0.06290   0.94780   1.000
    O33     O    0.99497   0.14630   0.84618   1.000
    N34     N    0.99465   0.41564   0.86778   1.000
    O35     O    0.13484   0.41785   0.93487   1.000
    O36     O    0.08966   0.46142   0.96148   1.000
    O37     O    0.89069   0.43285   0.75984   1.000
    O38     O    0.99021   0.35392   0.86876   1.000
    N39     N    0.99923   0.91630   0.33115   1.000
    O40     O    0.06177   0.91596   0.19550   1.000
    O41     O    0.10191   0.95884   0.23718   1.000
    O42     O    0.99962   0.85433   0.34521   1.000
    O43     O    0.93618   0.97859   0.40583   1.000
    O44     O    0.89202   0.93787   0.44678   1.000
    N45     N    0.50156   0.58494   0.83756   1.000
    O46     O    0.50378   0.64702   0.85068   1.000
    O47     O    0.56295   0.58531   0.70612   1.000
    O48     O    0.60301   0.54270   0.74390   1.000
    O49     O    0.43765   0.52244   0.90614   1.000
    O50     O    0.39399   0.56315   0.95257   1.000
    N51     N    0.49492   0.41668   0.33779   1.000
    O52     O    0.49420   0.35449   0.35012   1.000
    O53     O    0.43421   0.41663   0.20008   1.000
    O54     O    0.39293   0.45894   0.24329   1.000
    O55     O    0.55740   0.47934   0.41293   1.000
    O56     O    0.60212   0.43874   0.45367   1.000
    N57     N    0.00004   0.58524   0.36851   1.000
    O58     O    0.00002   0.64686   0.36880   1.000
    O59     O    0.86016   0.58358   0.44002   1.000
    O60     O    0.90557   0.54021   0.46729   1.000
    O61     O    0.10443   0.56820   0.25958   1.000
    N62     N    0.50357   0.91626   0.86602   1.000
    O63     O    0.50833   0.85468   0.86879   1.000
    O64     O    0.36313   0.91825   0.93297   1.000
    O65     O    0.40846   0.96198   0.95966   1.000
    O66     O    0.60599   0.93258   0.75643   1.000
    N67     N    0.49512   0.08387   0.36642   1.000
    O68     O    0.49129   0.14606   0.36815   1.000
    O69     O    0.63529   0.08188   0.43892   1.000
    O70     O    0.58905   0.03621   0.46274   1.000
    O71     O    0.39197   0.06795   0.25660   1.000
loop_
    _geom_bond_atom_site_label_1
    _geom_bond_atom_site_label_2
    _geom_bond_distance
    _geom_bond_site_symmetry_2
    _ccdc_geom_bond_type
    Zr13   O20       1.16998  1_554   S
    Zr8    O20       1.16998      .   S
    Zr17   O21       1.16964  1_554   S
    Zr10   O21       1.16964      .   S
    Zr14   O22       1.17077      .   S
    Zr9    O22       1.17077  1_455   S
    Zr18   O23       1.17532      .   S
    Zr11   O23       1.17532      .   S
    Zr9    O24       1.17449      .   S
    Zr15   O24       1.17449      .   S
    Zr11   O25       1.17002      .   S
    Zr19   O25       1.17002      .   S
    Zr12   O26       1.17492      .   S
    Zr8    O26       1.17492  1_655   S
    Zr16   O27       1.17537      .   S
    Zr10   O27       1.17537      .   S
    N28    O29       2.13052      .   S
    Zr0    O29       3.01304      .   S
    N28    O30       2.20763      .   S
    Zr1    O30       3.27690  1_565   S
    N28    O31       2.02258  1_655   S
    Zr2    O31       2.89230  1_564   S
    N28    O32       2.29156  1_655   S
    Zr3    O32       3.30146  1_554   S
    N28    O33       1.51577      .   S
    Zr8    O33       2.53608      .   S
    N34    O35       2.09007  1_655   S
    Zr6    O35       2.90581  1_554   S
    N34    O36       2.17501  1_655   S
    Zr7    O36       3.28527  1_554   S
    N34    O37       2.15713      .   S
    Zr5    O37       3.00731      .   S
    N34    O38       1.49490      .   S
    Zr8    O38       2.50927      .   S
    N39    O40       2.19978  1_655   S
    Zr2    O40       3.21203      .   S
    N39    O41       2.20311  1_655   S
    Zr3    O41       3.26880  1_545   S
    N39    O42       1.51530      .   S
    Zr9    O42       2.53445  1_455   S
    N39    O43       2.05709      .   S
    Zr0    O43       3.00248  1_545   S
    N39    O44       2.29793      .   S
    Zr1    O44       3.31051      .   S
    N45    O46       1.51578      .   S
    Zr10   O46       2.53533      .   S
    N45    O47       2.13550      .   S
    Zr4    O47       3.02119      .   S
    N45    O48       2.19356      .   S
    Zr5    O48       3.24653      .   S
    N45    O49       2.01073      .   S
    Zr6    O49       2.86507  1_554   S
    N45    O50       2.29175      .   S
    Zr7    O50       3.30045  1_554   S
    N51    O52       1.51694      .   S
    Zr11   O52       2.53739      .   S
    N51    O53       2.21633      .   S
    Zr6    O53       3.26144      .   S
    N51    O54       2.20287      .   S
    Zr7    O54       3.26860      .   S
    N51    O55       2.05554      .   S
    Zr4    O55       3.00089      .   S
    N51    O56       2.29462      .   S
    Zr5    O56       3.30702      .   S
    N57    O58       1.49170      .   S
    Zr9    O58       2.50715      .   S
    N57    O59       2.12358  1_455   S
    Zr4    O59       3.00216      .   S
    N57    O60       2.21713  1_455   S
    Zr5    O60       3.24953      .   S
    N57    O61       2.17546      .   S
    Zr7    O61       3.03116      .   S
    N62    O63       1.49313      .   S
    Zr10   O63       2.50684      .   S
    N62    O64       2.09655      .   S
    Zr2    O64       2.92462  1_554   S
    N62    O65       2.18557      .   S
    Zr3    O65       3.28281  1_544   S
    N62    O66       2.16120      .   S
    Zr1    O66       3.01252      .   S
    N67    O68       1.50681      .   S
    Zr11   O68       2.52199      .   S
    N67    O69       2.13065      .   S
    Zr0    O69       2.99902      .   S
    N67    O70       2.22424      .   S
    Zr1    O70       3.20126  1_565   S
    N67    O71       2.16274      .   S
    Zr3    O71       3.01292      .   S
