# CIF file generated by openbabel 2.4.90, see http://openbabel.sf.net
data_I
_chemical_name_common ''
_cell_length_a 8.8355
_cell_length_b 8.8355
_cell_length_c 13.703
_cell_angle_alpha 95.653
_cell_angle_beta 95.661
_cell_angle_gamma 92.63
_space_group_name_H-M_alt 'P 1'
_space_group_name_Hall 'P 1'
loop_
    _symmetry_equiv_pos_as_xyz
    x,y,z
loop_
    _atom_site_label
    _atom_site_type_symbol
    _atom_site_fract_x
    _atom_site_fract_y
    _atom_site_fract_z
    _atom_site_occupancy
    Zr0     Zr   0.47559   0.15150   0.39638   1.000
    Zr1     Zr   0.84849   0.52437   0.10364   1.000
    Zr2     Zr   0.52433   0.84846   0.60363   1.000
    Zr3     Zr   0.15144   0.47558   0.89637   1.000
    Zr4     Zr   0.99997   0.49998   0.50001   1.000
    Zr5     Zr   0.49995   0.99996   0.00000   1.000
    Zr6     Zr   0.31567   0.10423   0.55807   1.000
    Zr7     Zr   0.47319   0.18362   0.61407   1.000
    Zr8     Zr   0.89579   0.68429   0.94188   1.000
    Zr9     Zr   0.81632   0.52675   0.88596   1.000
    Zr10    Zr   0.68427   0.89575   0.44194   1.000
    Zr11    Zr   0.52675   0.81636   0.38594   1.000
    Zr12    Zr   0.10415   0.31569   0.05813   1.000
    Zr13    Zr   0.18362   0.47323   0.11405   1.000
    Zr14    Zr   0.83306   0.35387   0.47746   1.000
    Zr15    Zr   0.97499   0.53089   0.36414   1.000
    Zr16    Zr   0.14122   0.35158   0.46909   1.000
    Zr17    Zr   0.64608   0.16688   0.02257   1.000
    Zr18    Zr   0.46907   0.02497   0.13587   1.000
    Zr19    Zr   0.64838   0.85871   0.03091   1.000
    Zr20    Zr   0.16685   0.64608   0.52255   1.000
    Zr21    Zr   0.02492   0.46905   0.63587   1.000
    Zr22    Zr   0.85869   0.64837   0.53092   1.000
    Zr23    Zr   0.35383   0.83307   0.97745   1.000
    Zr24    Zr   0.53083   0.97498   0.86414   1.000
    Zr25    Zr   0.35153   0.14124   0.96911   1.000
    Zr26    Zr   0.42503   0.08810   0.56639   1.000
    Zr27    Zr   0.91188   0.57492   0.93361   1.000
    Zr28    Zr   0.57491   0.91188   0.43363   1.000
    Zr29    Zr   0.08806   0.42506   0.06640   1.000
    O30     O    0.57302   0.08342   0.01128   1.000
    O31     O    0.57417   0.92934   0.01545   1.000
    O32     O    0.48451   0.01247   0.06794   1.000
    O33     O    0.51539   0.98747   0.93207   1.000
    O34     O    0.42574   0.07060   0.98455   1.000
    O35     O    0.42689   0.91651   0.98872   1.000
    O36     O    0.09611   0.37037   0.06227   1.000
    O37     O    0.13584   0.44915   0.09023   1.000
    O38     O    0.98748   0.51543   0.43207   1.000
    O39     O    0.55083   0.86412   0.40978   1.000
    O40     O    0.62959   0.90382   0.43778   1.000
    O41     O    0.07060   0.42578   0.48455   1.000
    O42     O    0.91652   0.42692   0.48873   1.000
    O43     O    0.08341   0.57303   0.51128   1.000
    O44     O    0.92933   0.57417   0.51546   1.000
    O45     O    0.01245   0.48452   0.56794   1.000
    O46     O    0.37035   0.09616   0.56223   1.000
    O47     O    0.44911   0.13586   0.59023   1.000
    O48     O    0.86410   0.55084   0.90979   1.000
    O49     O    0.90384   0.62961   0.93774   1.000
    O50     O    0.45031   0.11980   0.48138   1.000
    O51     O    0.47468   0.96828   0.58501   1.000
    O52     O    0.88018   0.54965   0.01862   1.000
    O53     O    0.03166   0.52525   0.91499   1.000
    O54     O    0.52525   0.03169   0.41500   1.000
    O55     O    0.54962   0.88017   0.51863   1.000
    O56     O    0.96827   0.47471   0.08502   1.000
    O57     O    0.11975   0.45032   0.98139   1.000
    N58     N    0.95745   0.54600   0.27870   1.000
    O59     O    0.96183   0.54223   0.30006   1.000
    N60     N    0.47182   0.52819   0.24999   1.000
    N61     N    0.52811   0.47177   0.75002   1.000
    N62     N    0.27789   0.72909   0.53735   1.000
    O63     O    0.25013   0.70834   0.53365   1.000
    O64     O    0.33950   0.75894   0.55392   1.000
    N65     N    0.04247   0.45394   0.72131   1.000
    O66     O    0.03808   0.45772   0.69995   1.000
    N67     N    0.26694   0.23603   0.94742   1.000
    O68     O    0.28809   0.21233   0.95284   1.000
    N69     N    0.27077   0.72205   0.96262   1.000
    O70     O    0.29154   0.74981   0.96632   1.000
    O71     O    0.24094   0.66043   0.94605   1.000
    N72     N    0.54591   0.95740   0.77869   1.000
    O73     O    0.54214   0.96180   0.80006   1.000
    N74     N    0.76394   0.73298   0.55261   1.000
    O75     O    0.78763   0.71183   0.54719   1.000
    N76     N    0.23597   0.26697   0.44740   1.000
    O77     O    0.21229   0.28812   0.45282   1.000
    N78     N    0.72914   0.27790   0.03739   1.000
    O79     O    0.75898   0.33951   0.05395   1.000
    O80     O    0.70838   0.25014   0.03369   1.000
    N81     N    0.45399   0.04255   0.22132   1.000
    O82     O    0.45776   0.03816   0.19996   1.000
    N83     N    0.73297   0.76392   0.05259   1.000
    O84     O    0.71182   0.78762   0.04717   1.000
    N85     N    0.72202   0.27086   0.46266   1.000
    O86     O    0.66041   0.24102   0.44609   1.000
    O87     O    0.74978   0.29161   0.46636   1.000
loop_
    _geom_bond_atom_site_label_1
    _geom_bond_atom_site_label_2
    _geom_bond_distance
    _geom_bond_site_symmetry_2
    _ccdc_geom_bond_type
    Zr5    O30       0.94795  1_565   S
    Zr17   O30       0.94795      .   S
    Zr5    O31       0.94891      .   S
    Zr19   O31       0.94891      .   S
    Zr5    O32       0.95060  1_565   S
    Zr18   O32       0.95060      .   S
    Zr5    O33       0.95052  1_554   S
    Zr24   O33       0.95052      .   S
    Zr5    O34       0.94892  1_564   S
    Zr25   O34       0.94892      .   S
    Zr5    O35       0.94785  1_554   S
    Zr23   O35       0.94785      .   S
    Zr12   O36       0.49017      .   S
    Zr29   O36       0.49017      .   S
    Zr29   O37       0.53006      .   S
    Zr13   O37       0.53006      .   S
    Zr15   O38       0.95052      .   S
    Zr4    O38       0.95052      .   S
    Zr11   O39       0.53006      .   S
    Zr28   O39       0.53006      .   S
    Zr28   O40       0.49017      .   S
    Zr10   O40       0.49017      .   S
    Zr16   O41       0.94886      .   S
    Zr4    O41       0.94886  1_655   S
    Zr14   O42       0.94783      .   S
    Zr4    O42       0.94783      .   S
    Zr4    O43       0.94775  1_655   S
    Zr20   O43       0.94775      .   S
    Zr4    O44       0.94893      .   S
    Zr22   O44       0.94893      .   S
    Zr4    O45       0.95052  1_655   S
    Zr21   O45       0.95052      .   S
    Zr6    O46       0.49018      .   S
    Zr26   O46       0.49018      .   S
    Zr26   O47       0.53007      .   S
    Zr7    O47       0.53007      .   S
    Zr9    O48       0.53005      .   S
    Zr27   O48       0.53005      .   S
    Zr27   O49       0.49016      .   S
    Zr8    O49       0.49016      .   S
    Zr26   O50       1.26292      .   S
    Zr0    O50       1.26292      .   S
    Zr26   O51       1.20500  1_545   S
    Zr2    O51       1.20500      .   S
    Zr27   O52       1.26305  1_556   S
    Zr1    O52       1.26305      .   S
    Zr27   O53       1.20480  1_655   S
    Zr3    O53       1.20480      .   S
    Zr28   O54       1.20499  1_565   S
    Zr0    O54       1.20499      .   S
    Zr28   O55       1.26296      .   S
    Zr2    O55       1.26296      .   S
    Zr29   O56       1.20481  1_455   S
    Zr1    O56       1.20481      .   S
    Zr29   O57       1.26301  1_554   S
    Zr3    O57       1.26301      .   S
    N58    O59       0.29681      .   S
    Zr15   O59       0.89044      .   S
    N62    O63       0.29655      .   S
    Zr20   O63       0.88966      .   S
    N62    O64       0.60665      .   S
    Zr2    O64       1.81996      .   S
    N65    O66       0.29681      .   S
    Zr21   O66       0.89044      .   S
    N67    O68       0.29695      .   S
    Zr25   O68       0.89084      .   S
    N69    O70       0.29656      .   S
    Zr23   O70       0.88967      .   S
    N69    O71       0.60669      .   S
    Zr3    O71       1.82007      .   S
    N72    O73       0.29682      .   S
    Zr24   O73       0.89045      .   S
    N74    O75       0.29695      .   S
    Zr22   O75       0.89084      .   S
    N76    O77       0.29695      .   S
    Zr16   O77       0.89084      .   S
    N78    O79       0.60670      .   S
    Zr1    O79       1.82010      .   S
    N78    O80       0.29656      .   S
    Zr17   O80       0.88967      .   S
    N81    O82       0.29681      .   S
    Zr18   O82       0.89044      .   S
    N83    O84       0.29695      .   S
    Zr19   O84       0.89084      .   S
    N85    O86       0.60664      .   S
    Zr0    O86       1.81992      .   S
    N85    O87       0.29655      .   S
    Zr14   O87       0.88966      .   S
