# CIF file generated by openbabel 2.4.90, see http://openbabel.sf.net
data_I
_chemical_name_common ''
_cell_length_a 8.9005
_cell_length_b 9.957
_cell_length_c 10.173
_cell_angle_alpha 82.633
_cell_angle_beta 88.724
_cell_angle_gamma 86.396
_space_group_name_H-M_alt 'P 1'
_space_group_name_Hall 'P 1'
loop_
    _symmetry_equiv_pos_as_xyz
    x,y,z
loop_
    _atom_site_label
    _atom_site_type_symbol
    _atom_site_fract_x
    _atom_site_fract_y
    _atom_site_fract_z
    _atom_site_occupancy
    H0      H    0.70676   0.05892   0.51701   1.000
    H1      H    0.87032   0.43608   0.58438   1.000
    H2      H    0.87645   0.91479   0.95403   1.000
    H3      H    0.43389   0.52856   0.63596   1.000
    H4      H    0.37124   0.08663   0.92562   1.000
    H5      H    0.29326   0.94108   0.48298   1.000
    H6      H    0.12969   0.56393   0.41560   1.000
    H7      H    0.12356   0.08522   0.04595   1.000
    H8      H    0.56614   0.47144   0.36402   1.000
    H9      H    0.62876   0.91335   0.07436   1.000
    C10     C    0.01536   0.31314   0.46210   1.000
    C11     C    0.96506   0.44201   0.51451   1.000
    C12     C    0.04030   0.00678   0.81088   1.000
    C13     C    0.97334   0.97697   0.94633   1.000
    C14     C    0.57617   0.67357   0.52014   1.000
    C15     C    0.49673   0.54598   0.54277   1.000
    C16     C    0.54723   0.97582   0.81894   1.000
    C17     C    0.47278   0.01975   0.93920   1.000
    C18     C    0.98466   0.68687   0.53788   1.000
    C19     C    0.03496   0.55799   0.48547   1.000
    C20     C    0.95971   0.99323   0.18910   1.000
    C21     C    0.02667   0.02304   0.05365   1.000
    C22     C    0.42385   0.32643   0.47984   1.000
    C23     C    0.50329   0.45402   0.45722   1.000
    C24     C    0.45279   0.02418   0.18105   1.000
    C25     C    0.52723   0.98024   0.06079   1.000
    O26     O    0.76842   0.97657   0.50516   1.000
    O27     O    0.96282   0.20573   0.52271   1.000
    O28     O    0.10909   0.31862   0.36419   1.000
    O29     O    0.98134   0.95623   0.71686   1.000
    O30     O    0.15443   0.08062   0.79878   1.000
    O31     O    0.56970   0.74521   0.61506   1.000
    O32     O    0.64556   0.70240   0.40862   1.000
    O33     O    0.66473   0.89485   0.83410   1.000
    O34     O    0.49557   0.02132   0.70461   1.000
    O35     O    0.23159   0.02344   0.49482   1.000
    O36     O    0.03719   0.79428   0.47727   1.000
    O37     O    0.89093   0.68139   0.63579   1.000
    O38     O    0.01867   0.04377   0.28312   1.000
    O39     O    0.84558   0.91940   0.20120   1.000
    O40     O    0.43032   0.25480   0.38491   1.000
    O41     O    0.35447   0.29760   0.59136   1.000
    O42     O    0.33528   0.10515   0.16588   1.000
    O43     O    0.50444   0.97868   0.29538   1.000
loop_
    _geom_bond_atom_site_label_1
    _geom_bond_atom_site_label_2
    _geom_bond_distance
    _geom_bond_site_symmetry_2
    _ccdc_geom_bond_type
    H7     C21       1.08850      .   S
    C21    C20       1.49088  1_445   S
    C21    C13       1.34407  1_444   S
    C25    H9        1.08884      .   S
    C25    C24       1.48052  1_565   S
    C25    C17       1.34073  1_564   S
    O42    C24       1.27940      .   S
    C24    O43       1.27746  1_545   S
    C20    O39       1.28561      .   S
    C20    O38       1.27371  1_665   S
    H8     C23       1.09006      .   S
    O28    C10       1.28291      .   S
    O40    C22       1.27030      .   S
    O32    C14       1.28780      .   S
    H6     C19       1.09019      .   S
    C23    C22       1.48243      .   S
    C23    C15       1.33959      .   S
    C10    C11       1.49130  1_455   S
    C10    O27       1.27417  1_455   S
    O36    C18       1.27417  1_455   S
    C22    O41       1.28780      .   S
    H5     O35       0.97674  1_565   S
    C19    C11       1.34261  1_455   S
    C19    C18       1.49129  1_455   S
    O26    H0        0.97675  1_565   S
    C11    H1        1.09018      .   S
    C14    C15       1.48244      .   S
    C14    O31       1.27030      .   S
    C18    O37       1.28291      .   S
    C15    H3        1.09006      .   S
    O34    C16       1.27746  1_545   S
    O29    C12       1.27371  1_665   S
    O30    C12       1.28559      .   S
    C12    C13       1.49089  1_445   S
    C16    O33       1.27939      .   S
    C16    C17       1.48052  1_565   S
    H4     C17       1.08884      .   S
    C13    H2        1.08852      .   S
