# CIF file generated by openbabel 2.4.90, see http://openbabel.sf.net
data_I
_chemical_name_common ''
_cell_length_a 22.222
_cell_length_b 16.168
_cell_length_c 15.922
_cell_angle_alpha 89.998
_cell_angle_beta 91.136
_cell_angle_gamma 89.999
_space_group_name_H-M_alt 'P 1'
_space_group_name_Hall 'P 1'
loop_
    _symmetry_equiv_pos_as_xyz
    x,y,z
loop_
    _atom_site_label
    _atom_site_type_symbol
    _atom_site_fract_x
    _atom_site_fract_y
    _atom_site_fract_z
    _atom_site_occupancy
    Zr0     Zr   0.25022   0.50000   0.58640   1.000
    Zr1     Zr   0.75022   0.50000   0.58640   1.000
    Zr2     Zr   0.24979   0.50001   0.41356   1.000
    Zr3     Zr   0.74979   0.50001   0.41356   1.000
    O4      O    0.25000   0.50000   0.49998   1.000
    O5      O    0.75001   0.50000   0.49998   1.000
    N6      N    0.50000   0.00000   0.49997   1.000
    O7      O    0.60869   0.77263   0.46098   1.000
    O8      O    0.60886   0.77258   0.53982   1.000
    O9      O    0.39132   0.77263   0.53897   1.000
    O10     O    0.39115   0.77258   0.46013   1.000
    O11     O    0.39132   0.22737   0.53897   1.000
    O12     O    0.39115   0.22743   0.46013   1.000
    O13     O    0.60869   0.22738   0.46098   1.000
    O14     O    0.60886   0.22742   0.53982   1.000
    N15     N    0.00000   0.00000   0.49998   1.000
    O16     O    0.10869   0.77263   0.46098   1.000
    O17     O    0.10886   0.77258   0.53983   1.000
    O18     O    0.89132   0.77263   0.53898   1.000
    O19     O    0.89115   0.77258   0.46013   1.000
    O20     O    0.89132   0.22737   0.53898   1.000
    O21     O    0.89115   0.22743   0.46013   1.000
    O22     O    0.10869   0.22738   0.46098   1.000
    O23     O    0.10886   0.22742   0.53983   1.000
    N24     N    0.25000   0.50000   0.99994   1.000
    O25     O    0.25153   0.50000   0.82567   1.000
    O26     O    0.24848   0.50001   0.17424   1.000
    N27     N    0.75001   0.50000   0.99997   1.000
    O28     O    0.75153   0.50000   0.82569   1.000
    O29     O    0.74848   0.50000   0.17425   1.000
loop_
    _geom_bond_atom_site_label_1
    _geom_bond_atom_site_label_2
    _geom_bond_distance
    _geom_bond_site_symmetry_2
    _ccdc_geom_bond_type
    Zr0    O4        1.37589      .   S
    Zr2    O4        1.37589      .   S
    Zr1    O5        1.37589      .   S
    Zr3    O5        1.37589      .   S
    N6     O7        4.44884  1_545   S
    Zr3    O7        5.47032      .   S
    N6     O8        4.43991  1_545   S
    Zr1    O8        5.45405      .   S
    N6     O9        4.44889  1_545   S
    Zr0    O9        5.47041      .   S
    N6     O10       4.43999  1_545   S
    Zr2    O10       5.45416      .   S
    N6     O11       4.44885      .   S
    Zr0    O11       5.47033      .   S
    N6     O12       4.43991      .   S
    Zr2    O12       5.45404      .   S
    N6     O13       4.44888      .   S
    Zr3    O13       5.47040      .   S
    N6     O14       4.44000      .   S
    Zr1    O14       5.45417      .   S
    N15    O16       4.44882  1_545   S
    Zr2    O16       5.47031      .   S
    N15    O17       4.43990  1_545   S
    Zr0    O17       5.45404      .   S
    N15    O18       4.44886  1_445   S
    Zr1    O18       5.47038      .   S
    N15    O19       4.43996  1_445   S
    Zr3    O19       5.45413      .   S
    N15    O20       4.44883  1_455   S
    Zr1    O20       5.47031      .   S
    N15    O21       4.43989  1_455   S
    Zr3    O21       5.45402      .   S
    N15    O22       4.44887      .   S
    Zr2    O22       5.47039      .   S
    N15    O23       4.43998      .   S
    Zr0    O23       5.45416      .   S
    N24    O25       2.77559      .   S
    Zr0    O25       3.80918      .   S
    N24    O26       2.77606  1_556   S
    Zr2    O26       3.81004      .   S
    N27    O28       2.77586      .   S
    Zr1    O28       3.80945      .   S
    N27    O29       2.77579  1_556   S
    Zr3    O29       3.80977      .   S
