# CIF file generated by openbabel 2.4.90, see http://openbabel.sf.net
data_I
_chemical_name_common ''
_cell_length_a 18.425
_cell_length_b 18.432
_cell_length_c 18.433
_cell_angle_alpha 60.135
_cell_angle_beta 60.158
_cell_angle_gamma 60.157
_space_group_name_H-M_alt 'P 1'
_space_group_name_Hall 'P 1'
loop_
    _symmetry_equiv_pos_as_xyz
    x,y,z
loop_
    _atom_site_label
    _atom_site_type_symbol
    _atom_site_fract_x
    _atom_site_fract_y
    _atom_site_fract_z
    _atom_site_occupancy
    H0      H    0.04822   0.56807   0.04860   1.000
    H1      H    0.56810   0.04794   0.33564   1.000
    H2      H    0.04806   0.33567   0.04753   1.000
    H3      H    0.33564   0.04831   0.56810   1.000
    H4      H    0.04805   0.04754   0.33566   1.000
    H5      H    0.56810   0.33566   0.04790   1.000
    H6      H    0.04823   0.04859   0.56804   1.000
    H7      H    0.33564   0.56820   0.04830   1.000
    H8      H    0.04814   0.33565   0.56816   1.000
    H9      H    0.56813   0.04837   0.04837   1.000
    H10     H    0.04814   0.56820   0.33565   1.000
    H11     H    0.33564   0.04776   0.04777   1.000
    H12     H    0.43189   0.95163   0.95160   1.000
    H13     H    0.95188   0.43181   0.66433   1.000
    H14     H    0.66438   0.95225   0.95221   1.000
    H15     H    0.95188   0.66436   0.43181   1.000
    H16     H    0.95197   0.95247   0.66431   1.000
    H17     H    0.66438   0.43181   0.95166   1.000
    H18     H    0.95179   0.95142   0.43194   1.000
    H19     H    0.43192   0.66435   0.95204   1.000
    H20     H    0.66438   0.95170   0.43181   1.000
    H21     H    0.95180   0.43194   0.95138   1.000
    H22     H    0.43192   0.95207   0.66433   1.000
    H23     H    0.95196   0.66434   0.95244   1.000
    C24     C    0.02671   0.53902   0.02690   1.000
    C25     C    0.53906   0.02655   0.40764   1.000
    C26     C    0.02662   0.40767   0.02632   1.000
    C27     C    0.40764   0.02676   0.53908   1.000
    C28     C    0.02662   0.02633   0.40765   1.000
    C29     C    0.53905   0.40766   0.02654   1.000
    C30     C    0.02672   0.02692   0.53899   1.000
    C31     C    0.40764   0.53911   0.02676   1.000
    C32     C    0.02667   0.40765   0.53907   1.000
    C33     C    0.53904   0.02681   0.02680   1.000
    C34     C    0.02667   0.53910   0.40764   1.000
    C35     C    0.40764   0.02646   0.02646   1.000
    C36     C    0.46098   0.97321   0.97317   1.000
    C37     C    0.97335   0.46091   0.59233   1.000
    C38     C    0.59237   0.97355   0.97351   1.000
    C39     C    0.97334   0.59236   0.46090   1.000
    C40     C    0.97340   0.97368   0.59233   1.000
    C41     C    0.59238   0.46090   0.97321   1.000
    C42     C    0.97330   0.97308   0.46098   1.000
    C43     C    0.46097   0.59235   0.97343   1.000
    C44     C    0.59238   0.97325   0.46089   1.000
    C45     C    0.97331   0.46099   0.97304   1.000
    C46     C    0.46096   0.97346   0.59234   1.000
    C47     C    0.97340   0.59234   0.97365   1.000
    C48     C    0.05367   0.44632   0.05361   1.000
    C49     C    0.44636   0.05367   0.44640   1.000
    C50     C    0.05367   0.05361   0.44630   1.000
    C51     C    0.44636   0.44642   0.05360   1.000
    C52     C    0.05369   0.44641   0.44639   1.000
    C53     C    0.44632   0.05362   0.05363   1.000
    C54     C    0.55370   0.94638   0.94635   1.000
    C55     C    0.94632   0.55360   0.55358   1.000
    C56     C    0.94634   0.94640   0.55367   1.000
    C57     C    0.55366   0.55359   0.94630   1.000
    C58     C    0.55366   0.94634   0.55350   1.000
    C59     C    0.94634   0.55368   0.94637   1.000
loop_
    _geom_bond_atom_site_label_1
    _geom_bond_atom_site_label_2
    _geom_bond_distance
    _geom_bond_site_symmetry_2
    _ccdc_geom_bond_type
    C26    H2        1.08861      .   S
    C26    C48       1.40324      .   S
    C26    C45       1.39048  1_454   S
    C35    H11       1.08861      .   S
    C35    C53       1.40327      .   S
    C35    C36       1.39061  1_544   S
    C29    H5        1.08859      .   S
    C29    C51       1.40314      .   S
    C29    C41       1.39016  1_554   S
    C31    H7        1.08859      .   S
    C31    C51       1.40318      .   S
    C31    C43       1.39015  1_554   S
    C33    H9        1.08855      .   S
    C33    C53       1.40338      .   S
    C33    C38       1.39061  1_544   S
    C24    H0        1.08900      .   S
    C24    C48       1.40328      .   S
    C24    C47       1.39007  1_454   S
    H1     C25       1.08869      .   S
    H10    C34       1.08856      .   S
    H4     C28       1.08865      .   S
    C25    C49       1.40315      .   S
    C25    C44       1.39018  1_545   S
    C34    C52       1.40320      .   S
    C34    C39       1.39022  1_455   S
    C28    C50       1.40310      .   S
    C28    C42       1.38998  1_445   S
    H20    C44       1.08858      .   S
    H15    C39       1.08861      .   S
    H18    C42       1.08845      .   S
    C50    C30       1.40336      .   S
    C52    C32       1.40314      .   S
    C49    C27       1.40315      .   S
    C44    C58       1.40213      .   S
    C39    C55       1.40314      .   S
    C42    C56       1.40336      .   S
    C30    H6        1.08863      .   S
    C30    C40       1.38997  1_445   S
    C32    H8        1.08859      .   S
    C32    C37       1.39022  1_455   S
    C27    H3        1.08851      .   S
    C27    C46       1.39031  1_545   S
    C58    C46       1.40329      .   S
    C55    C37       1.40320      .   S
    C56    C40       1.40327      .   S
    C37    H13       1.08871      .   S
    C40    H16       1.08849      .   S
    C46    H22       1.08854      .   S
    C57    C41       1.40316      .   S
    C57    C43       1.40317      .   S
    C54    C36       1.40339      .   S
    C54    C38       1.40324      .   S
    C59    C45       1.40332      .   S
    C59    C47       1.40327      .   S
    H21    C45       1.08849      .   S
    H12    C36       1.08862      .   S
    H17    C41       1.08858      .   S
    H19    C43       1.08859      .   S
    H14    C38       1.08864      .   S
    H23    C47       1.08860      .   S
