# CIF file generated by openbabel 2.4.90, see http://openbabel.sf.net
data_I
_chemical_name_common ''
_cell_length_a 23.02
_cell_length_b 14.98
_cell_length_c 14.982
_cell_angle_alpha 90.008
_cell_angle_beta 89.98
_cell_angle_gamma 90.016
_space_group_name_H-M_alt 'P 1'
_space_group_name_Hall 'P 1'
loop_
    _symmetry_equiv_pos_as_xyz
    x,y,z
loop_
    _atom_site_label
    _atom_site_type_symbol
    _atom_site_fract_x
    _atom_site_fract_y
    _atom_site_fract_z
    _atom_site_occupancy
    N0      N    0.03259   0.13456   0.70689   1.000
    N1      N    0.96743   0.70691   0.13455   1.000
    N2      N    0.90760   0.79314   0.63454   1.000
    N3      N    0.34245   0.36548   0.20684   1.000
    N4      N    0.09241   0.63456   0.79308   1.000
    N5      N    0.21743   0.29316   0.86543   1.000
    N6      N    0.71744   0.29316   0.86543   1.000
    N7      N    0.78257   0.86549   0.29310   1.000
    N8      N    0.15756   0.20687   0.36544   1.000
    N9      N    0.28257   0.86549   0.29314   1.000
    N10     N    0.84246   0.36548   0.20684   1.000
    N11     N    0.59242   0.63457   0.79308   1.000
    N12     N    0.65757   0.20686   0.36544   1.000
    N13     N    0.46742   0.70691   0.13456   1.000
    N14     N    0.53259   0.13455   0.70688   1.000
    N15     N    0.40759   0.79314   0.63454   1.000
    Zr16    Zr   0.12499   0.11287   0.88712   1.000
    O17     O    0.12989   0.03148   0.88504   1.000
    O18     O    0.12009   0.11493   0.96853   1.000
    Zr19    Zr   0.50001   0.61288   0.61284   1.000
    O20     O    0.50490   0.61495   0.53143   1.000
    O21     O    0.49511   0.53146   0.61491   1.000
    Zr22    Zr   1.00000   0.61289   0.61284   1.000
    O23     O    0.00489   0.61495   0.53143   1.000
    O24     O    0.99511   0.53147   0.61491   1.000
    Zr25    Zr   0.62500   0.11288   0.88712   1.000
    O26     O    0.62989   0.03149   0.88503   1.000
    O27     O    0.62010   0.11494   0.96853   1.000
    Zr28    Zr   0.37501   0.88716   0.11286   1.000
    O29     O    0.37991   0.96857   0.11492   1.000
    O30     O    0.37011   0.88510   0.03146   1.000
    Zr31    Zr   0.87502   0.88716   0.11286   1.000
    O32     O    0.87012   0.88510   0.03145   1.000
    O33     O    0.87992   0.96857   0.11492   1.000
    Zr34    Zr   0.25000   0.38715   0.38712   1.000
    O35     O    0.25490   0.38509   0.46852   1.000
    O36     O    0.24510   0.46855   0.38506   1.000
    Zr37    Zr   0.75001   0.38715   0.38712   1.000
    O38     O    0.75491   0.38509   0.46852   1.000
    O39     O    0.74511   0.46855   0.38506   1.000
    O40     O    0.15180   0.16569   0.88410   1.000
    O41     O    0.09820   0.11589   0.83432   1.000
    O42     O    0.90181   0.83436   0.11585   1.000
    O43     O    0.84821   0.88415   0.16567   1.000
    O44     O    0.02679   0.61591   0.66562   1.000
    O45     O    0.97321   0.66569   0.61586   1.000
    O46     O    0.59821   0.11589   0.83432   1.000
    O47     O    0.34821   0.88415   0.16567   1.000
    O48     O    0.22320   0.33434   0.38410   1.000
    O49     O    0.27681   0.38413   0.33431   1.000
    O50     O    0.52680   0.61590   0.66564   1.000
    O51     O    0.47321   0.66569   0.61586   1.000
    O52     O    0.65180   0.16569   0.88410   1.000
    O53     O    0.77682   0.38413   0.33431   1.000
    O54     O    0.72321   0.33433   0.38410   1.000
    O55     O    0.40181   0.83436   0.11588   1.000
loop_
    _geom_bond_atom_site_label_1
    _geom_bond_atom_site_label_2
    _geom_bond_distance
    _geom_bond_site_symmetry_2
    _ccdc_geom_bond_type
    Zr16   O17       1.22488      .   S
    N4     O17       6.16372  1_565   S
    Zr16   O18       1.22527      .   S
    N8     O18       6.16456  1_554   S
    Zr19   O20       1.22524      .   S
    N13    O20       6.16461      .   S
    Zr19   O21       1.22518      .   S
    N14    O21       6.16453      .   S
    Zr22   O23       1.22527  1_655   S
    N1     O23       6.16466  1_655   S
    Zr22   O24       1.22513      .   S
    N0     O24       6.16447  1_455   S
    Zr25   O26       1.22486      .   S
    N11    O26       6.16369  1_565   S
    Zr25   O27       1.22527      .   S
    N12    O27       6.16454  1_554   S
    Zr28   O29       1.22495      .   S
    N3     O29       6.16381  1_545   S
    Zr28   O30       1.22519      .   S
    N15    O30       6.16430  1_556   S
    Zr31   O32       1.22524      .   S
    N2     O32       6.16425  1_556   S
    Zr31   O33       1.22494      .   S
    N10    O33       6.16384  1_545   S
    Zr34   O35       1.22516      .   S
    N5     O35       6.16438      .   S
    Zr34   O36       1.22510      .   S
    N9     O36       6.16404      .   S
    Zr37   O38       1.22512      .   S
    N6     O38       6.16441      .   S
    Zr37   O39       1.22511      .   S
    N7     O39       6.16417      .   S
    Zr16   O40       1.00416      .   S
    N5     O40       2.45065      .   S
    Zr16   O41       1.00427      .   S
    N0     O41       2.45092      .   S
    Zr31   O42       1.00423      .   S
    N1     O42       2.45098      .   S
    Zr31   O43       1.00419      .   S
    N7     O43       2.45039      .   S
    Zr22   O44       1.00410  1_655   S
    N4     O44       2.45104      .   S
    Zr22   O45       1.00418      .   S
    N2     O45       2.45069      .   S
    N14    O46       2.45096      .   S
    Zr25   O46       1.00434      .   S
    N9     O47       2.45081      .   S
    Zr28   O47       1.00419      .   S
    N8     O48       2.45069      .   S
    Zr34   O48       1.00418      .   S
    Zr34   O49       1.00422      .   S
    N3     O49       2.45082      .   S
    N11    O50       2.45091      .   S
    Zr19   O50       1.00425      .   S
    N15    O51       2.45089      .   S
    Zr19   O51       1.00426      .   S
    Zr25   O52       1.00416      .   S
    N6     O52       2.45064      .   S
    Zr37   O53       1.00424      .   S
    N10    O53       2.45081      .   S
    Zr37   O54       1.00418      .   S
    N12    O54       2.45068      .   S
    Zr28   O55       1.00427      .   S
    N13    O55       2.45090      .   S
