# CIF file generated by openbabel 2.4.90, see http://openbabel.sf.net
data_I
_chemical_name_common ''
_cell_length_a 13.19
_cell_length_b 13.947
_cell_length_c 16.988
_cell_angle_alpha 89.974
_cell_angle_beta 89.987
_cell_angle_gamma 90.126
_space_group_name_H-M_alt 'P 1'
_space_group_name_Hall 'P 1'
loop_
    _symmetry_equiv_pos_as_xyz
    x,y,z
loop_
    _atom_site_label
    _atom_site_type_symbol
    _atom_site_fract_x
    _atom_site_fract_y
    _atom_site_fract_z
    _atom_site_occupancy
    Zr0     Zr   0.47601   0.40859   0.42682   1.000
    Zr1     Zr   0.42577   0.48013   0.09327   1.000
    Zr2     Zr   0.52396   0.09161   0.92687   1.000
    Zr3     Zr   0.57425   0.02004   0.59333   1.000
    Zr4     Zr   0.97756   0.59143   0.07306   1.000
    Zr5     Zr   0.92448   0.51973   0.40670   1.000
    Zr6     Zr   0.02242   0.90860   0.57308   1.000
    Zr7     Zr   0.07545   0.98055   0.90669   1.000
    Zr8     Zr   0.52362   0.59165   0.57316   1.000
    Zr9     Zr   0.57436   0.52038   0.90600   1.000
    Zr10    Zr   0.47604   0.90855   0.07314   1.000
    Zr11    Zr   0.42586   0.98019   0.40672   1.000
    Zr12    Zr   0.02243   0.40862   0.92692   1.000
    Zr13    Zr   0.07532   0.48054   0.59326   1.000
    Zr14    Zr   0.97758   0.09149   0.42690   1.000
    Zr15    Zr   0.92453   0.01961   0.09329   1.000
    N16     N    0.20487   0.51911   0.08069   1.000
    O17     O    0.14037   0.47389   0.02395   1.000
    O18     O    0.27715   0.49980   0.08155   1.000
    O19     O    0.12516   0.53978   0.07209   1.000
    N20     N    0.01712   0.28522   0.50071   1.000
    O21     O    0.00237   0.22449   0.47098   1.000
    O22     O    0.98575   0.37113   0.46234   1.000
    O23     O    0.03353   0.35696   0.52765   1.000
    N24     N    0.55700   0.03506   0.76801   1.000
    O25     O    0.55432   0.04864   0.70330   1.000
    N26     N    0.44300   0.96514   0.23205   1.000
    O27     O    0.44571   0.95156   0.29675   1.000
    N28     N    0.94308   0.53474   0.23183   1.000
    O29     O    0.94498   0.54840   0.29661   1.000
    N30     N    0.01716   0.78517   0.99921   1.000
    O31     O    0.03362   0.85692   0.97228   1.000
    O32     O    0.00236   0.72443   0.02895   1.000
    O33     O    0.98580   0.87106   0.03759   1.000
    N34     N    0.79524   0.48135   0.91798   1.000
    O35     O    0.72298   0.50069   0.91753   1.000
    O36     O    0.87490   0.46052   0.92720   1.000
    O37     O    0.85970   0.52639   0.97536   1.000
    N38     N    0.48369   0.28512   0.00083   1.000
    O39     O    0.49867   0.22448   0.97105   1.000
    O40     O    0.51433   0.37127   0.96221   1.000
    O41     O    0.46727   0.35675   0.02773   1.000
    N42     N    0.98270   0.71498   0.49922   1.000
    O43     O    0.99750   0.77568   0.52896   1.000
    O44     O    0.96626   0.64327   0.47230   1.000
    O45     O    0.01401   0.62909   0.53761   1.000
    N46     N    0.70397   0.98079   0.08129   1.000
    O47     O    0.62407   0.96021   0.07257   1.000
    O48     O    0.64019   0.02618   0.02443   1.000
    O49     O    0.77620   0.00004   0.08201   1.000
    N50     N    0.70390   0.48088   0.41851   1.000
    O51     O    0.64000   0.52630   0.47538   1.000
    O52     O    0.77613   0.50014   0.41785   1.000
    O53     O    0.62400   0.46029   0.42726   1.000
    N54     N    0.51664   0.71537   0.99919   1.000
    O55     O    0.48595   0.62921   0.03760   1.000
    O56     O    0.53303   0.64373   0.97209   1.000
    O57     O    0.50159   0.77591   0.02896   1.000
    N58     N    0.94306   0.03473   0.26813   1.000
    O59     O    0.94497   0.04837   0.20333   1.000
    N60     N    0.44294   0.46506   0.26794   1.000
    O61     O    0.44565   0.45149   0.20324   1.000
    N62     N    0.48356   0.78496   0.49903   1.000
    O63     O    0.46721   0.85665   0.47215   1.000
    O64     O    0.51417   0.87107   0.53752   1.000
    O65     O    0.49848   0.72437   0.52886   1.000
    N66     N    0.51662   0.21543   0.50093   1.000
    O67     O    0.50160   0.27595   0.47112   1.000
    O68     O    0.53295   0.14368   0.52787   1.000
    O69     O    0.48601   0.12925   0.46250   1.000
    N70     N    0.29561   0.51948   0.58095   1.000
    O71     O    0.37555   0.54006   0.57233   1.000
    O72     O    0.35953   0.47407   0.52418   1.000
    O73     O    0.22347   0.50020   0.58175   1.000
    N74     N    0.05541   0.96534   0.73189   1.000
    O75     O    0.05425   0.95172   0.79668   1.000
    N76     N    0.29598   0.01951   0.91706   1.000
    O77     O    0.37590   0.04007   0.92662   1.000
    O78     O    0.22376   0.00023   0.91718   1.000
    O79     O    0.35977   0.97410   0.97476   1.000
    N80     N    0.79513   0.98107   0.58075   1.000
    O81     O    0.87484   0.96036   0.57214   1.000
    O82     O    0.72286   0.00038   0.58161   1.000
    O83     O    0.85965   0.02627   0.52399   1.000
    N84     N    0.98278   0.21495   0.00079   1.000
    O85     O    0.99758   0.27567   0.97104   1.000
    O86     O    0.01414   0.12907   0.96239   1.000
    O87     O    0.96633   0.14321   0.02771   1.000
    N88     N    0.55601   0.53690   0.73214   1.000
    O89     O    0.55361   0.54989   0.79672   1.000
    N90     N    0.20495   0.01923   0.41929   1.000
    O91     O    0.27723   0.99991   0.41844   1.000
    O92     O    0.14041   0.97395   0.47603   1.000
    O93     O    0.12522   0.03987   0.42788   1.000
    N94     N    0.05536   0.46530   0.76808   1.000
    O95     O    0.05419   0.45169   0.70330   1.000
    O96     O    0.95478   0.05360   0.32379   1.000
    O97     O    0.04329   0.44644   0.82376   1.000
    O98     O    0.54505   0.55534   0.67641   1.000
    O99     O    0.45388   0.44620   0.32366   1.000
    O100    O    0.95478   0.55360   0.17616   1.000
    O101    O    0.04332   0.94648   0.67622   1.000
    O102    O    0.45392   0.94625   0.17633   1.000
    O103    O    0.54607   0.05394   0.82371   1.000
loop_
    _geom_bond_atom_site_label_1
    _geom_bond_atom_site_label_2
    _geom_bond_distance
    _geom_bond_site_symmetry_2
    _ccdc_geom_bond_type
    N16    O17       1.43149      .   S
    Zr12   O17       2.44176  1_556   S
    N16    O18       0.99136      .   S
    Zr1    O18       1.99009      .   S
    N16    O19       1.10054      .   S
    Zr4    O19       2.07746  1_655   S
    N20    O21       1.00501      .   S
    Zr14   O21       2.02661  1_655   S
    N20    O22       1.42591  1_455   S
    Zr5    O22       2.41820      .   S
    N20    O23       1.12105      .   S
    Zr13   O23       2.12480      .   S
    N24    O25       1.11600      .   S
    Zr3    O25       1.92844      .   S
    N26    O27       1.11587      .   S
    Zr11   O27       1.92842      .   S
    N28    O29       1.11734      .   S
    Zr5    O29       1.93108      .   S
    N30    O31       1.12094      .   S
    Zr7    O31       2.12433      .   S
    N30    O32       1.00481  1_556   S
    Zr4    O32       2.02617  1_655   S
    N30    O33       1.42621  1_456   S
    Zr15   O33       2.41869  1_545   S
    N34    O35       0.99117      .   S
    Zr9    O35       1.98968      .   S
    N34    O36       1.10194      .   S
    Zr12   O36       2.07777  1_455   S
    N34    O37       1.43746      .   S
    Zr4    O37       2.44758  1_554   S
    N38    O39       1.00560  1_554   S
    Zr2    O39       2.02790      .   S
    N38    O40       1.42643  1_554   S
    Zr9    O40       2.41953      .   S
    N38    O41       1.12044      .   S
    Zr1    O41       2.12260      .   S
    N42    O43       1.00495      .   S
    Zr6    O43       2.02606  1_455   S
    N42    O44       1.12075      .   S
    Zr5    O44       2.12412      .   S
    N42    O45       1.42577  1_655   S
    Zr13   O45       2.41787      .   S
    N46    O47       1.10177      .   S
    Zr10   O47       2.07978      .   S
    N46    O48       1.42961  1_565   S
    Zr2    O48       2.43635  1_556   S
    N46    O49       0.98929  1_565   S
    Zr15   O49       1.98414      .   S
    N50    O51       1.43082      .   S
    Zr8    O51       2.43989      .   S
    N50    O52       0.98937      .   S
    Zr5    O52       1.98415      .   S
    N50    O53       1.10172      .   S
    Zr0    O53       2.07951      .   S
    N54    O55       1.42511  1_556   S
    Zr1    O55       2.41626      .   S
    N54    O56       1.12170      .   S
    Zr9    O56       2.12680      .   S
    N54    O57       1.00458  1_556   S
    Zr10   O57       2.02555      .   S
    N58    O59       1.11730      .   S
    Zr15   O59       1.93091      .   S
    N60    O61       1.11600      .   S
    Zr1    O61       1.92825      .   S
    N62    O63       1.12050      .   S
    Zr11   O63       2.12225      .   S
    N62    O64       1.42526      .   S
    Zr3    O64       2.41638  1_545   S
    N62    O65       1.00496      .   S
    Zr8    O65       2.02590      .   S
    N66    O67       1.00429      .   S
    Zr0    O67       2.02588      .   S
    N66    O68       1.12151      .   S
    Zr3    O68       2.12357      .   S
    N66    O69       1.42556      .   S
    Zr11   O69       2.41756  1_565   S
    N70    O71       1.10185      .   S
    Zr8    O71       2.07998      .   S
    N70    O72       1.42997      .   S
    Zr0    O72       2.43643      .   S
    N70    O73       0.98833      .   S
    Zr13   O73       1.98219      .   S
    N74    O75       1.11690      .   S
    Zr7    O75       1.93210      .   S
    N76    O77       1.10381      .   S
    Zr2    O77       2.07960      .   S
    N76    O78       0.98928      .   S
    Zr7    O78       1.98291  1_565   S
    N76    O79       1.43954  1_545   S
    Zr10   O79       2.44672  1_554   S
    N80    O81       1.10068      .   S
    Zr6    O81       2.07773  1_455   S
    N80    O82       0.99123  1_565   S
    Zr3    O82       1.98983      .   S
    N80    O83       1.43112  1_565   S
    Zr14   O83       2.44106      .   S
    N84    O85       1.00470  1_554   S
    Zr12   O85       2.02569  1_455   S
    N84    O86       1.42611  1_654   S
    Zr7    O86       2.41849  1_565   S
    N84    O87       1.12067      .   S
    Zr15   O87       2.12379      .   S
    N88    O89       1.11249      .   S
    Zr9    O89       1.92115      .   S
    N90    O91       0.99141  1_545   S
    Zr11   O91       1.99015      .   S
    N90    O92       1.43153  1_545   S
    Zr6    O92       2.44175      .   S
    N90    O93       1.10071      .   S
    Zr14   O93       2.07766  1_655   S
    N94    O95       1.11699      .   S
    Zr13   O95       1.93200      .   S
    Zr14   O96       1.85431      .   S
    N58    O96       0.99368      .   S
    Zr12   O97       1.85019      .   S
    N94    O97       0.99439      .   S
    Zr8    O98       1.84746      .   S
    N88    O98       0.99158      .   S
    Zr0    O99       1.85251      .   S
    N60    O99       0.99288      .   S
    Zr4    O100      1.85331      .   S
    N28    O100      0.99335      .   S
    Zr6    O101      1.85082      .   S
    N74    O101      0.99455      .   S
    Zr10   O102      1.85357      .   S
    N26    O102      0.99325      .   S
    Zr2    O103      1.85291      .   S
    N24    O103      0.99301      .   S
