# CIF file generated by openbabel 2.4.90, see http://openbabel.sf.net
data_I
_chemical_name_common ''
_cell_length_a 10.143
_cell_length_b 12.816
_cell_length_c 12.826
_cell_angle_alpha 81.096
_cell_angle_beta 66.763
_cell_angle_gamma 66.789
_space_group_name_H-M_alt 'P 1'
_space_group_name_Hall 'P 1'
loop_
    _symmetry_equiv_pos_as_xyz
    x,y,z
loop_
    _atom_site_label
    _atom_site_type_symbol
    _atom_site_fract_x
    _atom_site_fract_y
    _atom_site_fract_z
    _atom_site_occupancy
    Mc0     Mc   0.40604   0.40873   0.44885   1.000
    Mc1     Mc   0.18497   0.55120   0.40873   1.000
    Mc2     Mc   0.14474   0.44890   0.59113   1.000
    Mc3     Mc   0.26399   0.59134   0.55121   1.000
    Mc4     Mc   0.81499   0.44877   0.59127   1.000
    Mc5     Mc   0.85522   0.55107   0.40887   1.000
    Mc6     Mc   0.59392   0.59125   0.55115   1.000
    Mc7     Mc   0.73596   0.40864   0.44880   1.000
