# CIF file generated by openbabel 2.4.90, see http://openbabel.sf.net
data_I
_chemical_name_common ''
_cell_length_a 10.95
_cell_length_b 13.18
_cell_length_c 13.821
_cell_angle_alpha 61.782
_cell_angle_beta 71.832
_cell_angle_gamma 89.868
_space_group_name_H-M_alt 'P 1'
_space_group_name_Hall 'P 1'
loop_
    _symmetry_equiv_pos_as_xyz
    x,y,z
loop_
    _atom_site_label
    _atom_site_type_symbol
    _atom_site_fract_x
    _atom_site_fract_y
    _atom_site_fract_z
    _atom_site_occupancy
    Cd0     Cd   0.25019   0.08440   0.99869   1.000
    Cd1     Cd   0.75007   0.91560   0.00080   1.000
    S2      S    0.75095   0.97540   0.16554   1.000
    S3      S    0.74963   0.13989   0.83781   1.000
    S4      S    0.24897   0.02447   0.83418   1.000
    S5      S    0.25066   0.86013   0.16172   1.000
loop_
    _geom_bond_atom_site_label_1
    _geom_bond_atom_site_label_2
    _geom_bond_distance
    _geom_bond_site_symmetry_2
    _ccdc_geom_bond_type
    Cd1    S2        2.74145      .   S
    Cd1    S3        2.74277  1_564   S
    S5     Cd0       2.74292  1_564   S
    S4     Cd0       2.74049      .   S
