# CIF file generated by openbabel 2.4.90, see http://openbabel.sf.net
data_I
_chemical_name_common ''
_cell_length_a 18.28
_cell_length_b 14.29
_cell_length_c 15.324
_cell_angle_alpha 89.443
_cell_angle_beta 90.195
_cell_angle_gamma 107.341
_space_group_name_H-M_alt 'P 1'
_space_group_name_Hall 'P 1'
loop_
    _symmetry_equiv_pos_as_xyz
    x,y,z
loop_
    _atom_site_label
    _atom_site_type_symbol
    _atom_site_fract_x
    _atom_site_fract_y
    _atom_site_fract_z
    _atom_site_occupancy
    Zr0     Zr   0.14612   0.33725   0.34101   1.000
    Zr1     Zr   0.64612   0.33725   0.34101   1.000
    Zr2     Zr   0.08813   0.13547   0.22600   1.000
    Zr3     Zr   0.58813   0.13547   0.22600   1.000
    Zr4     Zr   0.10390   0.16078   0.84099   1.000
    Zr5     Zr   0.60391   0.16078   0.84099   1.000
    Zr6     Zr   0.16198   0.36571   0.72596   1.000
    Zr7     Zr   0.66198   0.36571   0.72596   1.000
    Zr8     Zr   0.35387   0.66275   0.65900   1.000
    Zr9     Zr   0.85387   0.66275   0.65900   1.000
    Zr10    Zr   0.41186   0.86453   0.77401   1.000
    Zr11    Zr   0.91186   0.86453   0.77401   1.000
    Zr12    Zr   0.39608   0.83922   0.15902   1.000
    Zr13    Zr   0.89608   0.83922   0.15902   1.000
    Zr14    Zr   0.33801   0.63430   0.27400   1.000
    Zr15    Zr   0.83801   0.63430   0.27400   1.000
    N16     N    0.59477   0.15457   0.03546   1.000
    O17     O    0.59448   0.16482   0.96866   1.000
    O18     O    0.58830   0.15663   0.10096   1.000
    N19     N    0.15480   0.34498   0.53478   1.000
    O20     O    0.16160   0.34392   0.60074   1.000
    O21     O    0.15528   0.33402   0.46850   1.000
    N22     N    0.57163   0.73099   0.21847   1.000
    O23     O    0.49255   0.76013   0.20558   1.000
    O24     O    0.47804   0.70890   0.23432   1.000
    N25     N    0.42836   0.26902   0.78153   1.000
    O26     O    0.52195   0.29111   0.76567   1.000
    O27     O    0.50743   0.23988   0.79443   1.000
    N28     N    0.84518   0.65502   0.46523   1.000
    O29     O    0.84471   0.66598   0.53151   1.000
    O30     O    0.83838   0.65609   0.39926   1.000
    N31     N    0.40521   0.84543   0.96454   1.000
    O32     O    0.40550   0.83518   0.03135   1.000
    O33     O    0.41169   0.84337   0.89904   1.000
    N34     N    0.34518   0.65502   0.46523   1.000
    O35     O    0.33838   0.65609   0.39926   1.000
    O36     O    0.34471   0.66598   0.53151   1.000
    N37     N    0.32162   0.22993   0.28180   1.000
    O38     O    0.24257   0.25893   0.29468   1.000
    O39     O    0.22808   0.20848   0.26592   1.000
    N40     N    0.07110   0.73099   0.21847   1.000
    O41     O    0.99229   0.76013   0.20558   1.000
    O42     O    0.97777   0.70890   0.23432   1.000
    N43     N    0.92836   0.26902   0.78154   1.000
    O44     O    0.02195   0.29111   0.76567   1.000
    O45     O    0.00743   0.23988   0.79443   1.000
    N46     N    0.17837   0.77007   0.71820   1.000
    O47     O    0.27191   0.79152   0.73408   1.000
    O48     O    0.25742   0.74108   0.70533   1.000
    N49     N    0.82162   0.22993   0.28180   1.000
    O50     O    0.72808   0.20848   0.26592   1.000
    O51     O    0.74258   0.25893   0.29468   1.000
    N52     N    0.65480   0.34497   0.53478   1.000
    O53     O    0.65528   0.33402   0.46850   1.000
    O54     O    0.66160   0.34391   0.60074   1.000
    N55     N    0.09476   0.15456   0.03546   1.000
    O56     O    0.09448   0.16482   0.96866   1.000
    O57     O    0.08830   0.15662   0.10096   1.000
    N58     N    0.90520   0.84542   0.96455   1.000
    O59     O    0.90550   0.83517   0.03135   1.000
    O60     O    0.91168   0.84337   0.89905   1.000
    N61     N    0.67837   0.77007   0.71821   1.000
    O62     O    0.77191   0.79152   0.73408   1.000
    O63     O    0.75742   0.74108   0.70533   1.000
    C64     C    0.79766   0.46172   0.28509   1.000
    O65     O    0.82271   0.51628   0.27770   1.000
    O66     O    0.80601   0.38433   0.28425   1.000
    O67     O    0.74421   0.42651   0.30368   1.000
    C68     C    0.76384   0.75225   0.19989   1.000
    O69     O    0.78076   0.70221   0.22053   1.000
    O70     O    0.70018   0.74651   0.20619   1.000
    O71     O    0.80402   0.79474   0.18688   1.000
    C72     C    0.04755   0.96282   0.21481   1.000
    O73     O    0.07266   0.01731   0.22224   1.000
    O74     O    0.05581   0.88542   0.21577   1.000
    O75     O    0.99412   0.92792   0.19622   1.000
    C76     C    0.26384   0.75225   0.19989   1.000
    O77     O    0.20005   0.74651   0.20619   1.000
    O78     O    0.30401   0.79474   0.18688   1.000
    O79     O    0.28076   0.70221   0.22053   1.000
    C80     C    0.54755   0.96282   0.21481   1.000
    O81     O    0.49412   0.92792   0.19622   1.000
    O82     O    0.55594   0.88542   0.21577   1.000
    O83     O    0.57266   0.01731   0.22224   1.000
    C84     C    0.29765   0.46172   0.28509   1.000
    O85     O    0.24420   0.42651   0.30368   1.000
    O86     O    0.30601   0.38433   0.28425   1.000
    O87     O    0.32271   0.51628   0.27770   1.000
    C88     C    0.51377   0.25076   0.30016   1.000
    O89     O    0.55399   0.29308   0.31310   1.000
    O90     O    0.45013   0.24516   0.29394   1.000
    O91     O    0.53072   0.20142   0.27955   1.000
    C92     C    0.01137   0.25076   0.30016   1.000
    O93     O    0.05279   0.29308   0.31310   1.000
    O94     O    0.02772   0.20142   0.27955   1.000
    O95     O    0.94893   0.24516   0.29394   1.000
    C96     C    0.70234   0.53829   0.71492   1.000
    O97     O    0.75579   0.57349   0.69633   1.000
    O98     O    0.67728   0.48373   0.72230   1.000
    O99     O    0.69398   0.61568   0.71576   1.000
    C100    C    0.23614   0.24775   0.80012   1.000
    O101    O    0.21923   0.29779   0.77947   1.000
    O102    O    0.19597   0.20526   0.81313   1.000
    O103    O    0.29981   0.25349   0.79382   1.000
    C104    C    0.45243   0.03718   0.78518   1.000
    O105    O    0.42733   0.98269   0.77776   1.000
    O106    O    0.50587   0.07208   0.80376   1.000
    O107    O    0.44404   0.11458   0.78423   1.000
    C108    C    0.73615   0.24775   0.80012   1.000
    O109    O    0.71923   0.29779   0.77947   1.000
    O110    O    0.79981   0.25350   0.79382   1.000
    O111    O    0.69597   0.20526   0.81313   1.000
    C112    C    0.95243   0.03718   0.78518   1.000
    O113    O    0.92733   0.98269   0.77776   1.000
    O114    O    0.00587   0.07208   0.80376   1.000
    O115    O    0.94404   0.11458   0.78423   1.000
    C116    C    0.98622   0.74925   0.69986   1.000
    O117    O    0.04986   0.75484   0.70607   1.000
    O118    O    0.94600   0.70693   0.68691   1.000
    O119    O    0.96927   0.79859   0.72047   1.000
    C120    C    0.48622   0.74925   0.69984   1.000
    O121    O    0.54986   0.75484   0.70607   1.000
    O122    O    0.44600   0.70693   0.68690   1.000
    O123    O    0.46927   0.79859   0.72045   1.000
    C124    C    0.20234   0.53829   0.71492   1.000
    O125    O    0.17728   0.48373   0.72230   1.000
    O126    O    0.19398   0.61568   0.71576   1.000
    O127    O    0.25578   0.57349   0.69633   1.000
loop_
    _geom_bond_atom_site_label_1
    _geom_bond_atom_site_label_2
    _geom_bond_distance
    _geom_bond_site_symmetry_2
    _ccdc_geom_bond_type
    N16    O17       1.03298  1_554   S
    Zr5    O17       1.96742      .   S
    N16    O18       1.01283      .   S
    Zr3    O18       1.93672      .   S
    N19    O20       1.01847      .   S
    Zr6    O20       1.94660      .   S
    N19    O21       1.02969      .   S
    Zr0    O21       1.96150      .   S
    N22    O23       1.63006      .   S
    Zr12   O23       2.46181      .   S
    N22    O24       1.66285      .   S
    Zr14   O24       2.53564      .   S
    N25    O26       1.66289      .   S
    Zr7    O26       2.53580      .   S
    N25    O27       1.63006      .   S
    Zr5    O27       2.46181      .   S
    N28    O29       1.02968      .   S
    Zr9    O29       1.96148      .   S
    N28    O30       1.01867      .   S
    Zr15   O30       1.94718      .   S
    N31    O32       1.03303  1_556   S
    Zr12   O32       1.96748      .   S
    N31    O33       1.01278      .   S
    Zr10   O33       1.93667      .   S
    N34    O35       1.01868      .   S
    Zr14   O35       1.94718      .   S
    N34    O36       1.02967      .   S
    Zr8    O36       1.96148      .   S
    N37    O38       1.63057      .   S
    Zr0    O38       2.46291      .   S
    N37    O39       1.66228      .   S
    Zr2    O39       2.53338      .   S
    N40    O41       1.62538  1_455   S
    Zr13   O41       2.45766      .   S
    N40    O42       1.65813  1_455   S
    Zr15   O42       2.53136      .   S
    N43    O44       1.66286  1_655   S
    Zr6    O44       2.53579      .   S
    N43    O45       1.63004  1_655   S
    Zr4    O45       2.46180      .   S
    N46    O47       1.66229      .   S
    Zr10   O47       2.53340      .   S
    N46    O48       1.63057      .   S
    Zr8    O48       2.46289      .   S
    N49    O50       1.66228      .   S
    Zr3    O50       2.53339      .   S
    N49    O51       1.63058      .   S
    Zr1    O51       2.46291      .   S
    N52    O53       1.02969      .   S
    Zr1    O53       1.96149      .   S
    N52    O54       1.01847      .   S
    Zr7    O54       1.94660      .   S
    N55    O56       1.03299  1_554   S
    Zr4    O56       1.96743      .   S
    N55    O57       1.01282      .   S
    Zr2    O57       1.93672      .   S
    N58    O59       1.03297  1_556   S
    Zr13   O59       1.96742      .   S
    N58    O60       1.01284      .   S
    Zr11   O60       1.93673      .   S
    N61    O62       1.66227      .   S
    Zr11   O62       2.53338      .   S
    N61    O63       1.63057      .   S
    Zr9    O63       2.46290      .   S
    C64    O65       0.78502      .   S
    Zr15   O65       1.62566      .   S
    C64    O66       1.16085      .   S
    N49    O66       2.30812      .   S
    C64    O67       0.99748      .   S
    Zr1    O67       1.94892      .   S
    C68    O69       0.91310      .   S
    Zr15   O69       1.81456      .   S
    C68    O70       1.14631      .   S
    N22    O70       2.30180      .   S
    C68    O71       0.82494      .   S
    Zr13   O71       1.66752      .   S
    C72    O73       0.78626  1_565   S
    Zr2    O73       1.62835      .   S
    C72    O74       1.16004      .   S
    N40    O74       2.30560      .   S
    C72    O75       0.99722  1_455   S
    Zr13   O75       1.94837      .   S
    C76    O77       1.14871      .   S
    N40    O77       2.30899      .   S
    C76    O78       0.82494      .   S
    Zr12   O78       1.66751      .   S
    C76    O79       0.91310      .   S
    Zr14   O79       1.81456      .   S
    C80    O81       0.99723      .   S
    Zr12   O81       1.94839      .   S
    C80    O82       1.16105      .   S
    N22    O82       2.30856      .   S
    C80    O83       0.78627  1_565   S
    Zr3    O83       1.62835      .   S
    C84    O85       0.99748      .   S
    Zr0    O85       1.94892      .   S
    C84    O86       1.16085      .   S
    N37    O86       2.30813      .   S
    C84    O87       0.78502      .   S
    Zr14   O87       1.62566      .   S
    C88    O89       0.82571      .   S
    Zr1    O89       1.66870      .   S
    C88    O90       1.14585      .   S
    N37    O90       2.30080      .   S
    C88    O91       0.91000      .   S
    Zr3    O91       1.80922      .   S
    C92    O93       0.84059      .   S
    Zr0    O93       1.68838      .   S
    C92    O94       0.90376      .   S
    Zr2    O94       1.85004      .   S
    C92    O95       1.12400  1_455   S
    N49    O95       2.27899      .   S
    C96    O97       0.99748      .   S
    Zr9    O97       1.94892      .   S
    C96    O98       0.78499      .   S
    Zr7    O98       1.62564      .   S
    C96    O99       1.16085      .   S
    N61    O99       2.30812      .   S
    C100   O101      0.91318      .   S
    Zr6    O101      1.81482      .   S
    C100   O102      0.82493      .   S
    Zr4    O102      1.66750      .   S
    C100   O103      1.14632      .   S
    N25    O103      2.30181      .   S
    C104   O105      0.78623  1_545   S
    Zr10   O105      1.62833      .   S
    C104   O106      0.99720      .   S
    Zr5    O106      1.94851      .   S
    C104   O107      1.16105      .   S
    N25    O107      2.30856      .   S
    C108   O109      0.91318      .   S
    Zr7    O109      1.81482      .   S
    C108   O110      1.14631      .   S
    N43    O110      2.30180      .   S
    C108   O111      0.82493      .   S
    Zr5    O111      1.66751      .   S
    C112   O113      0.78623  1_545   S
    Zr11   O113      1.62833      .   S
    C112   O114      0.99719  1_655   S
    Zr4    O114      1.94851      .   S
    C112   O115      1.16105      .   S
    N43    O115      2.30856      .   S
    C116   O117      1.14583  1_655   S
    N46    O117      2.30078      .   S
    C116   O118      0.82571      .   S
    Zr9    O118      1.66872      .   S
    C116   O119      0.90999      .   S
    Zr11   O119      1.80915      .   S
    C120   O121      1.14585      .   S
    N61    O121      2.30081      .   S
    C120   O122      0.82569      .   S
    Zr8    O122      1.66870      .   S
    C120   O123      0.90997      .   S
    Zr10   O123      1.80929      .   S
    C124   O125      0.78499      .   S
    Zr6    O125      1.62564      .   S
    C124   O126      1.16085      .   S
    N46    O126      2.30812      .   S
    C124   O127      0.99749      .   S
    Zr8    O127      1.94893      .   S
