# CIF file generated by openbabel 2.4.90, see http://openbabel.sf.net
data_I
_chemical_name_common ''
_cell_length_a 20.211
_cell_length_b 23.023
_cell_length_c 14.943
_cell_angle_alpha 91.186
_cell_angle_beta 89.997
_cell_angle_gamma 89.948
_space_group_name_H-M_alt 'P 1'
_space_group_name_Hall 'P 1'
loop_
    _symmetry_equiv_pos_as_xyz
    x,y,z
loop_
    _atom_site_label
    _atom_site_type_symbol
    _atom_site_fract_x
    _atom_site_fract_y
    _atom_site_fract_z
    _atom_site_occupancy
    Zn0     Zn   0.46392   0.87759   0.13166   1.000
    Zn1     Zn   0.96391   0.37759   0.13166   1.000
    Zn2     Zn   0.96391   0.87759   0.13166   1.000
    Zn3     Zn   0.05860   0.37020   0.30875   1.000
    Zn4     Zn   0.05861   0.87020   0.30875   1.000
    Zn5     Zn   0.55859   0.37020   0.30875   1.000
    Zn6     Zn   0.55860   0.87020   0.30875   1.000
    Zn7     Zn   0.21392   0.37244   0.36836   1.000
    Zn8     Zn   0.21392   0.87245   0.36836   1.000
    Zn9     Zn   0.71391   0.37244   0.36836   1.000
    Zn10    Zn   0.71391   0.87245   0.36836   1.000
    Zn11    Zn   0.30858   0.37983   0.19124   1.000
    Zn12    Zn   0.30859   0.87984   0.19124   1.000
    Zn13    Zn   0.80857   0.37983   0.19124   1.000
    Zn14    Zn   0.80857   0.87984   0.19124   1.000
    Zn15    Zn   0.03607   0.12242   0.86834   1.000
    Zn16    Zn   0.03607   0.62243   0.86834   1.000
    Zn17    Zn   0.53606   0.12242   0.86834   1.000
    Zn18    Zn   0.53606   0.62243   0.86834   1.000
    Zn19    Zn   0.44138   0.12981   0.69125   1.000
    Zn20    Zn   0.44139   0.62982   0.69125   1.000
    Zn21    Zn   0.94137   0.12981   0.69125   1.000
    Zn22    Zn   0.94137   0.62982   0.69125   1.000
    Zn23    Zn   0.28607   0.12757   0.63164   1.000
    Zn24    Zn   0.28607   0.62757   0.63164   1.000
    Zn25    Zn   0.78606   0.12757   0.63164   1.000
    Zn26    Zn   0.78606   0.62757   0.63164   1.000
    Zn27    Zn   0.19140   0.12018   0.80876   1.000
    Zn28    Zn   0.19141   0.62018   0.80876   1.000
    Zn29    Zn   0.69139   0.12018   0.80876   1.000
    Zn30    Zn   0.69139   0.62018   0.80876   1.000
    Zn31    Zn   0.00000   0.25000   0.00000   1.000
    Zn32    Zn   0.46392   0.37759   0.13166   1.000
    Zn33    Zn   0.00000   0.75001   0.00000   1.000
    Zn34    Zn   0.49999   0.25000   0.00000   1.000
    Zn35    Zn   0.49999   0.75001   0.00000   1.000
    Zn36    Zn   0.24999   0.00000   0.50000   1.000
    Zn37    Zn   0.25000   0.50001   0.50000   1.000
    Zn38    Zn   0.74998   0.00000   0.50000   1.000
    Zn39    Zn   0.74998   0.50001   0.50000   1.000
    Zn40    Zn   0.00000   0.00000   0.00000   1.000
    Zn41    Zn   0.99998   0.50001   0.00000   1.000
    Zn42    Zn   0.49999   0.00000   0.00000   1.000
    Zn43    Zn   0.49999   0.50001   0.00000   1.000
    Zn44    Zn   0.24999   0.25000   0.50000   1.000
    Zn45    Zn   0.25000   0.75001   0.50000   1.000
    Zn46    Zn   0.74998   0.25000   0.50000   1.000
    Zn47    Zn   0.74998   0.75001   0.50000   1.000
