# CIF file generated by openbabel 2.4.90, see http://openbabel.sf.net
data_I
_chemical_name_common ''
_cell_length_a 7.4575
_cell_length_b 7.4915
_cell_length_c 13.05
_cell_angle_alpha 88.595
_cell_angle_beta 89.968
_cell_angle_gamma 88.302
_space_group_name_H-M_alt 'P 1'
_space_group_name_Hall 'P 1'
loop_
    _symmetry_equiv_pos_as_xyz
    x,y,z
loop_
    _atom_site_label
    _atom_site_type_symbol
    _atom_site_fract_x
    _atom_site_fract_y
    _atom_site_fract_z
    _atom_site_occupancy
    Zr0     Zr   0.99953   0.01469   0.75080   1.000
    Zr1     Zr   0.00052   0.98531   0.24923   1.000
    Zr2     Zr   0.99621   0.49999   0.00211   1.000
    Zr3     Zr   0.49946   0.00385   0.49996   1.000
    Zr4     Zr   0.99693   0.67955   0.90372   1.000
    Zr5     Zr   0.99394   0.33129   0.90244   1.000
    Zr6     Zr   0.32540   0.00131   0.59909   1.000
    Zr7     Zr   0.67534   0.00668   0.59874   1.000
    Zr8     Zr   0.00311   0.32035   0.09632   1.000
    Zr9     Zr   0.00616   0.66859   0.09767   1.000
    Zr10    Zr   0.67467   0.99879   0.40090   1.000
    Zr11    Zr   0.32471   0.99352   0.40131   1.000
    O12     O    0.99966   0.41017   0.04921   1.000
    O13     O    0.00118   0.58429   0.04989   1.000
    O14     O    0.99507   0.41564   0.95228   1.000
    O15     O    0.99657   0.58977   0.95292   1.000
    O16     O    0.58707   0.00132   0.45043   1.000
    O17     O    0.41209   0.99869   0.45063   1.000
    O18     O    0.58740   0.00526   0.54935   1.000
    O19     O    0.41243   0.00258   0.54952   1.000
    N20     N    0.78782   0.01420   0.66076   1.000
    O21     O    0.75970   0.01232   0.64525   1.000
    O22     O    0.84075   0.01432   0.68327   1.000
    N23     N    0.99345   0.22207   0.83995   1.000
    O24     O    0.99497   0.17022   0.81767   1.000
    O25     O    0.99357   0.24937   0.85558   1.000
    N26     N    0.21231   0.00377   0.66120   1.000
    O27     O    0.24058   0.00316   0.64567   1.000
    O28     O    0.15911   0.00650   0.68360   1.000
    N29     N    0.21216   0.98606   0.33933   1.000
    O30     O    0.24030   0.98792   0.35482   1.000
    O31     O    0.15925   0.98587   0.31680   1.000
    N32     N    0.00207   0.20451   0.15800   1.000
    O33     O    0.00233   0.23347   0.14258   1.000
    O34     O    0.00168   0.14971   0.18081   1.000
    N35     N    0.99812   0.79537   0.84202   1.000
    O36     O    0.99847   0.85020   0.81922   1.000
    O37     O    0.99782   0.76641   0.85745   1.000
    N38     N    0.78774   0.99631   0.33877   1.000
    O39     O    0.75947   0.99693   0.35431   1.000
    O40     O    0.84094   0.99356   0.31639   1.000
    N41     N    0.00675   0.77778   0.16018   1.000
    O42     O    0.00519   0.82966   0.18244   1.000
    O43     O    0.00660   0.75048   0.14455   1.000
loop_
    _geom_bond_atom_site_label_1
    _geom_bond_atom_site_label_2
    _geom_bond_distance
    _geom_bond_site_symmetry_2
    _ccdc_geom_bond_type
    Zr2    O12       0.89999      .   S
    Zr8    O12       0.89999  1_455   S
    Zr2    O13       0.89985  1_655   S
    Zr9    O13       0.89985      .   S
    Zr2    O14       0.91805  1_554   S
    Zr5    O14       0.91805      .   S
    Zr2    O15       0.91842  1_554   S
    Zr4    O15       0.91842      .   S
    Zr10   O16       0.91886  1_565   S
    Zr3    O16       0.91886      .   S
    Zr11   O17       0.91848      .   S
    Zr3    O17       0.91848  1_545   S
    Zr3    O18       0.92026      .   S
    Zr7    O18       0.92026      .   S
    Zr3    O19       0.91615      .   S
    Zr6    O19       0.91615      .   S
    N20    O21       0.29236      .   S
    Zr7    O21       0.87707      .   S
    N20    O22       0.49219      .   S
    Zr0    O22       1.47658      .   S
    N23    O24       0.49077      .   S
    Zr0    O24       1.47232      .   S
    N23    O25       0.29233      .   S
    Zr5    O25       0.87700      .   S
    N26    O27       0.29238      .   S
    Zr6    O27       0.87713      .   S
    N26    O28       0.49286      .   S
    Zr0    O28       1.47859  1_655   S
    N29    O30       0.29236      .   S
    Zr11   O30       0.87708      .   S
    N29    O31       0.49222      .   S
    Zr1    O31       1.47666      .   S
    N32    O33       0.29233      .   S
    Zr8    O33       0.87699      .   S
    N32    O34       0.50119      .   S
    Zr1    O34       1.50358  1_565   S
    N35    O36       0.50137      .   S
    Zr0    O36       1.50410  1_545   S
    N35    O37       0.29234      .   S
    Zr4    O37       0.87701      .   S
    N38    O39       0.29238      .   S
    Zr10   O39       0.87714      .   S
    N38    O40       0.49279      .   S
    Zr1    O40       1.47836  1_455   S
    N41    O42       0.49079      .   S
    Zr1    O42       1.47238      .   S
    N41    O43       0.29234      .   S
    Zr9    O43       0.87701      .   S
