# CIF file generated by openbabel 2.4.90, see http://openbabel.sf.net
data_I
_chemical_name_common ''
_cell_length_a 15.133
_cell_length_b 17.678
_cell_length_c 17.678
_cell_angle_alpha 90
_cell_angle_beta 90
_cell_angle_gamma 90
_space_group_name_H-M_alt 'P 1'
_space_group_name_Hall 'P 1'
loop_
    _symmetry_equiv_pos_as_xyz
    x,y,z
loop_
    _atom_site_label
    _atom_site_type_symbol
    _atom_site_fract_x
    _atom_site_fract_y
    _atom_site_fract_z
    _atom_site_occupancy
    H0      H    0.78488   0.87504   0.62355   1.000
    H1      H    0.82260   0.89188   0.48750   1.000
    H2      H    0.08377   0.90630   0.54690   1.000
    H3      H    0.04437   0.88610   0.68236   1.000
    H4      H    0.09680   0.84796   0.43285   1.000
    H5      H    0.12592   0.85674   0.29450   1.000
    H6      H    0.90406   0.96763   0.25639   1.000
    H7      H    0.86690   0.96822   0.39340   1.000
    H8      H    0.78537   0.90504   0.01960   1.000
    H9      H    0.74633   0.76721   0.00000   1.000
    H10     H    0.85584   0.74192   0.02112   1.000
    H11     H    0.78291   0.78499   0.08853   1.000
    H12     H    0.78612   0.13499   0.38572   1.000
    H13     H    0.82361   0.11806   0.52181   1.000
    H14     H    0.08487   0.10362   0.46267   1.000
    H15     H    0.04570   0.12389   0.32722   1.000
    H16     H    0.09773   0.16190   0.57680   1.000
    H17     H    0.12657   0.15310   0.71515   1.000
    H18     H    0.90458   0.04232   0.75297   1.000
    H19     H    0.86769   0.04172   0.61582   1.000
    H20     H    0.78570   0.10431   0.98966   1.000
    H21     H    0.74762   0.24201   0.00652   1.000
    H22     H    0.85564   0.26759   0.98854   1.000
    H23     H    0.78303   0.22447   0.92091   1.000
    H24     H    0.22618   0.62426   0.13541   1.000
    H25     H    0.18866   0.48817   0.11865   1.000
    H26     H    0.92749   0.54740   0.10337   1.000
    H27     H    0.96667   0.68286   0.12353   1.000
    H28     H    0.91456   0.43292   0.16182   1.000
    H29     H    0.88634   0.29442   0.15320   1.000
    H30     H    0.10884   0.25712   0.04300   1.000
    H31     H    0.14506   0.39441   0.04218   1.000
    H32     H    0.22739   0.01992   0.10386   1.000
    H33     H    0.26544   0.00000   0.24070   1.000
    H34     H    0.15791   0.01999   0.26731   1.000
    H35     H    0.23042   0.08785   0.22445   1.000
    H36     H    0.22625   0.38606   0.87390   1.000
    H37     H    0.18836   0.52208   0.89068   1.000
    H38     H    0.92733   0.46230   0.90588   1.000
    H39     H    0.96690   0.32693   0.88575   1.000
    H40     H    0.91397   0.57669   0.84760   1.000
    H41     H    0.88523   0.71512   0.85629   1.000
    H42     H    0.10775   0.75303   0.96617   1.000
    H43     H    0.14450   0.61586   0.96700   1.000
    H44     H    0.22551   0.99039   0.90599   1.000
    H45     H    0.26641   0.00676   0.76915   1.000
    H46     H    0.15663   0.99003   0.74235   1.000
    H47     H    0.22899   0.92222   0.78550   1.000
    H48     H    0.27786   0.87519   0.38560   1.000
    H49     H    0.31530   0.89189   0.52180   1.000
    H50     H    0.59128   0.90640   0.46277   1.000
    H51     H    0.55215   0.88636   0.32728   1.000
    H52     H    0.60401   0.84781   0.57682   1.000
    H53     H    0.63281   0.85641   0.71520   1.000
    H54     H    0.39624   0.96735   0.75310   1.000
    H55     H    0.35940   0.96815   0.61592   1.000
    H56     H    0.27715   0.90427   0.98964   1.000
    H57     H    0.24002   0.76739   0.00641   1.000
    H58     H    0.34809   0.74131   0.98804   1.000
    H59     H    0.27495   0.78427   0.92074   1.000
    H60     H    0.27841   0.13479   0.62355   1.000
    H61     H    0.31615   0.11805   0.48748   1.000
    H62     H    0.59201   0.10366   0.54696   1.000
    H63     H    0.55259   0.12373   0.68238   1.000
    H64     H    0.60505   0.16211   0.43290   1.000
    H65     H    0.63420   0.15351   0.29462   1.000
    H66     H    0.39770   0.04261   0.25629   1.000
    H67     H    0.36050   0.04185   0.39338   1.000
    H68     H    0.27905   0.10521   0.01952   1.000
    H69     H    0.23962   0.24195   0.00000   1.000
    H70     H    0.34911   0.26845   0.02140   1.000
    H71     H    0.27635   0.22504   0.08880   1.000
    H72     H    0.73297   0.62394   0.87385   1.000
    H73     H    0.69552   0.48784   0.89063   1.000
    H74     H    0.41965   0.54702   0.90620   1.000
    H75     H    0.45878   0.68248   0.88598   1.000
    H76     H    0.40661   0.43253   0.84791   1.000
    H77     H    0.37846   0.29402   0.85657   1.000
    H78     H    0.61601   0.25678   0.96615   1.000
    H79     H    0.65215   0.39408   0.96705   1.000
    H80     H    0.73410   0.01948   0.90578   1.000
    H81     H    0.77240   0.00000   0.76800   1.000
    H82     H    0.66489   0.01965   0.74225   1.000
    H83     H    0.73728   0.08752   0.78525   1.000
    H84     H    0.73428   0.38643   0.13538   1.000
    H85     H    0.69642   0.52244   0.11864   1.000
    H86     H    0.42067   0.46272   0.10364   1.000
    H87     H    0.46020   0.32735   0.12381   1.000
    C88     C    0.66458   0.60610   0.88081   1.000
    C89     C    0.64329   0.53031   0.89117   1.000
    C90     C    0.55475   0.50731   0.89931   1.000
    C91     C    0.48853   0.56320   0.89793   1.000
    H92     H    0.40728   0.57705   0.16174   1.000
    H93     H    0.37844   0.71545   0.15303   1.000
    H94     H    0.61570   0.75346   0.04324   1.000
    H95     H    0.65253   0.61631   0.04243   1.000
    H96     H    0.73340   0.99078   0.10355   1.000
    H97     H    0.77424   0.00719   0.24038   1.000
    H98     H    0.66445   0.99047   0.26717   1.000
    H99     H    0.73681   0.92264   0.22406   1.000
    C100    C    0.91976   0.87863   0.66097   1.000
    C101    C    0.85334   0.88175   0.60580   1.000
    C102    C    0.87479   0.89215   0.53002   1.000
    C103    C    0.96340   0.89996   0.50711   1.000
    C104    C    0.01483   0.89828   0.56307   1.000
    C105    C    0.00000   0.88755   0.63886   1.000
    C106    C    0.98546   0.90672   0.42600   1.000
    C107    C    0.04950   0.87660   0.39625   1.000
    C108    C    0.06570   0.88021   0.31902   1.000
    C109    C    0.94819   0.94222   0.29786   1.000
    C110    C    0.92750   0.94112   0.37434   1.000
    C111    C    0.83603   0.86268   0.00452   1.000
    C112    C    0.80330   0.78416   0.02896   1.000
    C113    C    0.92105   0.13139   0.34847   1.000
    C114    C    0.85454   0.12824   0.40356   1.000
    C115    C    0.87586   0.11780   0.47935   1.000
    C116    C    0.96444   0.10997   0.50236   1.000
    C117    C    0.01597   0.11166   0.44648   1.000
    O118    O    0.34657   0.86574   0.07429   1.000
    C119    C    0.00000   0.12242   0.37066   1.000
    C120    C    0.98635   0.10319   0.58348   1.000
    C121    C    0.05035   0.13327   0.61333   1.000
    C122    C    0.06639   0.12967   0.69059   1.000
    C123    C    0.94880   0.06771   0.71156   1.000
    C124    C    0.92827   0.06880   0.63505   1.000
    C125    C    0.83619   0.14678   0.00000   1.000
    C126    C    0.80325   0.22524   0.98052   1.000
    C127    C    0.09130   0.66156   0.13142   1.000
    C128    C    0.15777   0.60644   0.12852   1.000
    C129    C    0.13644   0.53065   0.11816   1.000
    C130    C    0.04788   0.50766   0.11012   1.000
    C131    C    0.99638   0.56357   0.11156   1.000
    C132    C    0.00302   0.63941   0.12226   1.000
    C133    C    0.02615   0.42650   0.10340   1.000
    C134    C    0.96218   0.39647   0.13338   1.000
    C135    C    0.94650   0.31914   0.12993   1.000
    C136    C    0.06436   0.29845   0.06830   1.000
    C137    C    0.08452   0.37503   0.06921   1.000
    C138    C    0.17700   0.00448   0.14632   1.000
    C139    C    0.21018   0.02824   0.22489   1.000
    C140    C    0.09145   0.34849   0.87791   1.000
    C141    C    0.15779   0.40374   0.88082   1.000
    C142    C    0.13625   0.47949   0.89115   1.000
    C143    C    0.04762   0.50232   0.89917   1.000
    C144    C    0.99627   0.44628   0.89771   1.000
    C145    C    0.00312   0.37049   0.88702   1.000
    C146    C    0.02562   0.58344   0.90591   1.000
    C147    C    0.96150   0.61327   0.87602   1.000
    C148    C    0.94552   0.69055   0.87952   1.000
    C149    C    0.06338   0.71159   0.94100   1.000
    C150    C    0.08384   0.63506   0.94004   1.000
    C151    C    0.17524   0.00000   0.86336   1.000
    C152    C    0.20874   0.98183   0.78492   1.000
    C153    C    0.41281   0.87882   0.34840   1.000
    C154    C    0.34628   0.88190   0.40354   1.000
    C155    C    0.36757   0.89221   0.47935   1.000
    C156    C    0.45613   0.89999   0.50240   1.000
    C157    C    0.52237   0.89839   0.44654   1.000
    C158    C    0.50109   0.88775   0.37070   1.000
    C159    C    0.47800   0.90663   0.58354   1.000
    C160    C    0.55665   0.87643   0.61338   1.000
    C161    C    0.57267   0.87993   0.69064   1.000
    C162    C    0.44044   0.94198   0.71166   1.000
    C163    C    0.41994   0.94100   0.63514   1.000
    C164    C    0.32790   0.86201   0.00000   1.000
    C165    C    0.29541   0.78344   0.98029   1.000
    C166    C    0.41329   0.13120   0.66097   1.000
    C167    C    0.34687   0.12810   0.60579   1.000
    C168    C    0.36833   0.11776   0.53001   1.000
    C169    C    0.45695   0.11000   0.50710   1.000
    C170    C    0.52307   0.11164   0.56306   1.000
    C171    C    0.50162   0.12231   0.63887   1.000
    C172    C    0.47903   0.10333   0.42000   1.000
    C173    C    0.55777   0.13351   0.39630   1.000
    C174    C    0.57399   0.13000   0.31906   1.000
    C175    C    0.44181   0.06799   0.29780   1.000
    C176    C    0.42110   0.06899   0.37428   1.000
    C177    C    0.32960   0.14771   0.00454   1.000
    C178    C    0.29668   0.22608   0.02922   1.000
    C179    C    0.59809   0.66121   0.87798   1.000
    C180    C    0.50983   0.63904   0.88720   1.000
    C181    C    0.53306   0.42613   0.90607   1.000
    C182    C    0.45433   0.39609   0.87625   1.000
    C183    C    0.43868   0.31876   0.87973   1.000
    C184    C    0.57142   0.29809   0.94107   1.000
    C185    C    0.59154   0.37468   0.94014   1.000
    C186    C    0.68378   0.00407   0.86325   1.000
    C187    C    0.71708   0.02790   0.78474   1.000
    C188    C    0.59947   0.34888   0.13153   1.000
    C189    C    0.66581   0.40412   0.12850   1.000
    C190    C    0.64428   0.47987   0.11822   1.000
    C191    C    0.55566   0.50272   0.11025   1.000
    C192    C    0.48961   0.44669   0.11177   1.000
    C193    C    0.51113   0.37090   0.12247   1.000
    C194    C    0.53365   0.58384   0.10350   1.000
    C195    C    0.45480   0.61364   0.13335   1.000
    C196    C    0.43877   0.69092   0.12983   1.000
    C197    C    0.57134   0.71200   0.06840   1.000
    C198    C    0.59185   0.63548   0.06930   1.000
    C199    C    0.68311   0.00000   0.14615   1.000
    C200    C    0.71657   0.98225   0.22461   1.000
    N201    N    0.00831   0.91178   0.26998   1.000
    N202    N    0.00888   0.09812   0.73954   1.000
    N203    N    0.00000   0.27030   0.09860   1.000
    N204    N    0.00000   0.73956   0.91075   1.000
    N205    N    0.51518   0.91147   0.73961   1.000
    N206    N    0.51661   0.09848   0.26997   1.000
    N207    N    0.49664   0.26993   0.91088   1.000
    N208    N    0.49645   0.73994   0.09860   1.000
    O209    O    0.85335   0.86531   0.93505   1.000
    O210    O    0.85490   0.14407   0.07436   1.000
    O211    O    0.15761   0.93617   0.14232   1.000
    O212    O    0.15803   0.07397   0.86716   1.000
    O213    O    0.34694   0.14425   0.93506   1.000
    O214    O    0.66438   0.93577   0.86715   1.000
    O215    O    0.66589   0.07436   0.14231   1.000
loop_
    _geom_bond_atom_site_label_1
    _geom_bond_atom_site_label_2
    _geom_bond_distance
    _geom_bond_site_symmetry_2
    _ccdc_geom_bond_type
    C125   O210      1.34555      .   S
    C125   C126      1.51364  1_554   S
    C125   H20       1.08664  1_554   S
    H69    C178      1.04451      .   S
    H9     C112      1.04656      .   S
    C164   O118      1.34497      .   S
    C164   C165      1.51414  1_554   S
    C164   H56       1.08692  1_554   S
    C111   H8        1.10430      .   S
    C111   C112      1.53577      .   S
    C111   O209      1.25661  1_554   S
    C177   H68       1.10445      .   S
    C177   C178      1.53567      .   S
    C177   O213      1.25745  1_554   S
    H57    C165      0.99810  1_554   S
    H21    C126      1.00394  1_554   S
    H10    C112      1.09962      .   S
    H70    C178      1.09981      .   S
    C112   H11       1.09745      .   S
    C178   H71       1.09744      .   S
    H31    C137      1.08859      .   S
    H95    C198      1.08805      .   S
    H30    C136      1.08944      .   S
    H94    C197      1.08876      .   S
    C136   C137      1.38786      .   S
    C136   N203      1.21789      .   S
    C197   C198      1.38794      .   S
    C197   N208      1.34663      .   S
    C137   C133      1.40468      .   S
    C198   C194      1.40528      .   S
    N203   C135      1.30676  1_455   S
    N208   C196      1.34830      .   S
    H26    C131      1.09067      .   S
    C133   C130      1.47687      .   S
    C133   C134      1.22460  1_455   S
    C194   C191      1.47705      .   S
    C194   C195      1.40700      .   S
    H96    C199      1.08301  1_565   S
    H86    C192      1.09064      .   S
    H32    C138      1.10429      .   S
    C130   C131      1.25892  1_455   S
    C130   C129      1.40755      .   S
    C191   C192      1.40748      .   S
    C191   C190      1.40767      .   S
    C131   C132      1.35768  1_655   S
    C192   C193      1.39179      .   S
    C129   H25       1.09028      .   S
    C129   C128      1.39019      .   S
    C190   H85       1.09032      .   S
    C190   C189      1.39020      .   S
    C132   H27       0.94504  1_455   S
    C132   C127      1.40157      .   S
    C193   H87       1.08955      .   S
    C193   C188      1.40151      .   S
    C189   C188      1.40163      .   S
    C189   H84       1.08906      .   S
    C128   C127      1.40152      .   S
    C128   H24       1.08888      .   S
    C196   C195      1.38889      .   S
    C196   H93       1.09077      .   S
    C135   C134      1.38880      .   S
    C135   H29       1.09045      .   S
    C195   H92       1.08972      .   S
    C134   H28       1.08968      .   S
    O215   C199      1.34175      .   S
    O211   C138      1.24460  1_565   S
    C199   C200      1.50952  1_545   S
    C138   C139      1.53548      .   S
    H99    C200      1.09742      .   S
    H35    C139      1.09746      .   S
    C200   H97       1.01660  1_565   S
    C200   H98       1.09969      .   S
    C139   H33       1.01323      .   S
    C139   H34       1.09968      .   S
    H66    C175      1.08870      .   S
    H6     C109      1.08870      .   S
    N206   C175      1.34682      .   S
    N206   C174      1.34820      .   S
    N201   C109      1.16616  1_455   S
    N201   C108      1.34819      .   S
    H5     C108      1.09101      .   S
    H65    C174      1.09073      .   S
    C175   C176      1.38797      .   S
    C109   C110      1.38793      .   S
    C108   C107      1.38858      .   S
    C174   C173      1.38872      .   S
    H15    C119      1.03371      .   S
    H51    C158      1.08948      .   S
    C153   C158      1.40188      .   S
    C153   C154      1.40240      .   S
    C113   C119      1.26741  1_655   S
    C113   C114      1.40162      .   S
    C119   C117      1.37518      .   S
    C158   C157      1.39161      .   S
    C176   H67       1.08864      .   S
    C176   C172      1.33811      .   S
    C110   H7        1.08817      .   S
    C110   C106      1.40464      .   S
    H48    C154      1.08932      .   S
    H12    C114      1.08897      .   S
    C107   C106      1.22448  1_455   S
    C107   H4        1.08965      .   S
    C173   C172      1.37103      .   S
    C173   H64       1.08916      .   S
    C154   C155      1.39036      .   S
    C114   C115      1.39041      .   S
    C172   C169      1.57999      .   S
    C106   C103      1.47704      .   S
    C117   H14       1.09065      .   S
    C117   C116      1.25886  1_455   S
    C157   H50       1.09068      .   S
    C157   C156      1.40741      .   S
    C115   C116      1.40763      .   S
    C115   H13       1.09027      .   S
    C155   C156      1.40759      .   S
    C155   H49       1.09032      .   S
    H61    C168      1.09035      .   S
    H1     C102      1.09028      .   S
    C116   C120      1.47673      .   S
    C156   C159      1.47676      .   S
    C169   C168      1.40764      .   S
    C169   C170      1.40734      .   S
    C103   C102      1.40762      .   S
    C103   C104      1.25908  1_655   S
    C168   C167      1.39050      .   S
    C102   C101      1.39061      .   S
    H2     C104      1.09096      .   S
    H62    C170      1.09062      .   S
    C170   C171      1.39175      .   S
    C104   C105      1.37167      .   S
    H16    C121      1.08959      .   S
    H52    C160      1.08967      .   S
    C120   C121      1.22453  1_655   S
    C120   C124      1.40464      .   S
    C159   C160      1.40704      .   S
    C159   C163      1.40469      .   S
    C167   H60       1.08898      .   S
    C167   C166      1.40167      .   S
    C101   H0        1.08893      .   S
    C101   C100      1.40162      .   S
    C121   C122      1.38867      .   S
    C160   C161      1.38852      .   S
    H19    C124      1.08860      .   S
    H55    C163      1.08865      .   S
    C124   C123      1.38789      .   S
    C163   C162      1.38794      .   S
    C105   C100      1.28532  1_455   S
    C105   H3        1.02119      .   S
    C171   C166      1.40150      .   S
    C171   H63       1.08952      .   S
    C122   H17       1.09065      .   S
    C122   N202      1.34814      .   S
    C161   H53       1.09072      .   S
    C161   N205      1.34812      .   S
    C123   N202      1.16628  1_655   S
    C123   H18       1.08867      .   S
    C162   N205      1.34679      .   S
    C162   H54       1.08872      .   S
    H82    C187      1.09968      .   S
    H46    C152      1.09960      .   S
    H81    C187      1.01568      .   S
    H45    C152      1.01662  1_545   S
    C187   H83       1.09743      .   S
    C187   C186      1.53548      .   S
    C152   H47       1.09743      .   S
    C152   C151      1.51094  1_565   S
    H40    C147      1.08990      .   S
    H76    C182      1.08966      .   S
    H41    C148      1.09076      .   S
    H77    C183      1.09068      .   S
    C186   O214      1.24453  1_545   S
    C186   H80       1.10425      .   S
    C151   O212      1.33496      .   S
    C151   H44       1.08413  1_545   S
    H72    C88       1.08889      .   S
    H36    C141      1.08905      .   S
    C147   C148      1.38888      .   S
    C147   C146      1.22426  1_655   S
    C182   C183      1.38879      .   S
    C182   C181      1.40692      .   S
    C140   C141      1.40156      .   S
    C140   C145      1.40154      .   S
    C179   C88       1.40148      .   S
    C179   C180      1.40154      .   S
    C148   N204      1.31716  1_655   S
    C183   N207      1.34817      .   S
    C88    C89       1.39009      .   S
    C141   C142      1.39028      .   S
    H39    C145      0.94547  1_655   S
    H75    C180      1.08955      .   S
    C145   C144      1.35710  1_455   S
    C180   C91       1.39191      .   S
    H73    C89       1.09028      .   S
    H37    C142      1.09030      .   S
    C142   C143      1.40766      .   S
    C89    C90       1.40756      .   S
    C144   C143      1.25936  1_655   S
    C144   H38       1.09064      .   S
    C91    C90       1.40747      .   S
    C91    H74       1.09069      .   S
    C143   C146      1.47700      .   S
    C90    C181      1.47684      .   S
    C146   C150      1.40468      .   S
    C181   C185      1.40474      .   S
    N204   C149      1.20433      .   S
    N207   C184      1.34673      .   S
    H59    C165      1.09740      .   S
    H23    C126      1.09741      .   S
    C150   C149      1.38792      .   S
    C150   H43       1.08861      .   S
    C185   C184      1.38787      .   S
    C185   H79       1.08858      .   S
    C149   H42       1.08877      .   S
    C184   H78       1.08868      .   S
    C165   H58       1.09963      .   S
    C126   H22       1.09964      .   S
