# CIF file generated by openbabel 2.4.90, see http://openbabel.sf.net
data_I
_chemical_name_common ''
_cell_length_a 14.826
_cell_length_b 21.759
_cell_length_c 12.748
_cell_angle_alpha 107.622
_cell_angle_beta 89.997
_cell_angle_gamma 90
_space_group_name_H-M_alt 'P 1'
_space_group_name_Hall 'P 1'
loop_
    _symmetry_equiv_pos_as_xyz
    x,y,z
loop_
    _atom_site_label
    _atom_site_type_symbol
    _atom_site_fract_x
    _atom_site_fract_y
    _atom_site_fract_z
    _atom_site_occupancy
    N0      N    0.75022   0.75001   0.00008   1.000
    N1      N    0.25022   0.24995   0.99982   1.000
    N2      N    0.24978   0.75001   0.00009   1.000
    N3      N    0.74977   0.24995   0.99987   1.000
    N4      N    0.00000   0.24986   0.49973   1.000
    N5      N    0.00000   0.74973   0.49981   1.000
    N6      N    0.50000   0.25024   0.50008   1.000
    N7      N    0.50000   0.75011   0.50021   1.000
    Zr8     Zr   0.50000   0.50080   0.99995   1.000
    O9      O    0.42474   0.56900   0.99152   1.000
    O10     O    0.42487   0.43208   0.00833   1.000
    O11     O    0.57526   0.56900   0.99152   1.000
    O12     O    0.50000   0.57296   0.14430   1.000
    O13     O    0.50000   0.42824   0.85568   1.000
    O14     O    0.57513   0.43208   0.00834   1.000
    Zr15    Zr   0.00000   0.00000   0.99970   1.000
    O16     O    0.07513   0.93156   0.00825   1.000
    O17     O    0.07525   0.06844   0.99130   1.000
    O18     O    0.00000   0.07235   0.14399   1.000
    O19     O    0.92487   0.93156   0.00825   1.000
    O20     O    1.00000   0.92754   0.85544   1.000
    O21     O    0.92475   0.06844   0.99131   1.000
    Zr22    Zr   0.00000   0.49917   0.00000   1.000
    O23     O    0.07513   0.56788   0.99161   1.000
    O24     O    0.07526   0.43097   0.00842   1.000
    O25     O    0.92487   0.56788   0.99161   1.000
    O26     O    0.92474   0.43097   0.00843   1.000
    O27     O    0.00001   0.57173   0.14425   1.000
    O28     O    0.00000   0.42701   0.85565   1.000
    Zr29    Zr   0.50000   0.99999   0.00021   1.000
    O30     O    0.50000   0.92763   0.85594   1.000
    O31     O    0.42487   0.06842   0.99166   1.000
    O32     O    0.57525   0.93154   0.00862   1.000
    O33     O    0.50000   0.07244   0.14447   1.000
    O34     O    0.42474   0.93154   0.00862   1.000
    O35     O    0.57512   0.06842   0.99167   1.000
loop_
    _geom_bond_atom_site_label_1
    _geom_bond_atom_site_label_2
    _geom_bond_distance
    _geom_bond_site_symmetry_2
    _ccdc_geom_bond_type
    Zr8    O9        1.88550      .   S
    N2     O9        4.68965  1_554   S
    Zr8    O10       1.89332  1_556   S
    N1     O10       4.70756  1_556   S
    Zr8    O11       1.88550      .   S
    N0     O11       4.68962  1_554   S
    Zr8    O12       2.02542  1_556   S
    N7     O12       4.98533      .   S
    Zr8    O13       2.02915      .   S
    N6     O13       4.99196      .   S
    Zr8    O14       1.89334  1_556   S
    N3     O14       4.70764  1_556   S
    Zr15   O16       1.88916  1_546   S
    N2     O16       4.69799      .   S
    Zr15   O17       1.88956      .   S
    N1     O17       4.69897      .   S
    Zr15   O18       2.02692  1_556   S
    N4     O18       4.98792      .   S
    Zr15   O19       1.88917  1_446   S
    N0     O19       4.69801      .   S
    Zr15   O20       2.02792  1_445   S
    N5     O20       4.99016  1_455   S
    Zr15   O21       1.88953  1_455   S
    N3     O21       4.69890      .   S
    Zr22   O23       1.89329  1_554   S
    N2     O23       4.70756  1_554   S
    Zr22   O24       1.88552      .   S
    N1     O24       4.68963  1_556   S
    Zr22   O25       1.89330  1_454   S
    N0     O25       4.70761  1_554   S
    Zr22   O26       1.88559  1_455   S
    N3     O26       4.68979  1_556   S
    Zr22   O27       2.02895      .   S
    N5     O27       4.99161      .   S
    Zr22   O28       2.02542  1_554   S
    N4     O28       4.98543      .   S
    Zr29   O30       2.02688  1_554   S
    N7     O30       4.98790      .   S
    Zr29   O31       1.88897  1_564   S
    N1     O31       4.69770      .   S
    Zr29   O32       1.88973      .   S
    N0     O32       4.69924      .   S
    Zr29   O33       2.02786  1_565   S
    N6     O33       4.98985      .   S
    Zr29   O34       1.88971      .   S
    N2     O34       4.69920      .   S
    Zr29   O35       1.88894  1_564   S
    N3     O35       4.69762      .   S
