# CIF file generated by openbabel 2.4.90, see http://openbabel.sf.net
data_I
_chemical_name_common ''
_cell_length_a 13.083
_cell_length_b 18.27
_cell_length_c 18.307
_cell_angle_alpha 89.723
_cell_angle_beta 89.881
_cell_angle_gamma 90.08
_space_group_name_H-M_alt 'P 1'
_space_group_name_Hall 'P 1'
loop_
    _symmetry_equiv_pos_as_xyz
    x,y,z
loop_
    _atom_site_label
    _atom_site_type_symbol
    _atom_site_fract_x
    _atom_site_fract_y
    _atom_site_fract_z
    _atom_site_occupancy
    H0      H    0.15328   0.23630   0.41351   1.000
    H1      H    0.30242   0.29701   0.21217   1.000
    H2      H    0.42486   0.37370   0.28099   1.000
    H3      H    0.40963   0.38318   0.41732   1.000
    H4      H    0.65137   0.76329   0.58613   1.000
    H5      H    0.80088   0.70258   0.78681   1.000
    H6      H    0.92315   0.62621   0.71737   1.000
    H7      H    0.90779   0.61701   0.58107   1.000
    H8      H    0.40478   0.08788   0.73409   1.000
    H9      H    0.55404   0.28889   0.79445   1.000
    H10     H    0.67630   0.21905   0.87085   1.000
    H11     H    0.66070   0.08238   0.88045   1.000
    H12     H    0.90241   0.91244   0.26450   1.000
    H13     H    0.05187   0.71199   0.20313   1.000
    H14     H    0.17440   0.78239   0.12691   1.000
    H15     H    0.15882   0.91906   0.11787   1.000
    H16     H    0.10119   0.26509   0.91259   1.000
    H17     H    0.95180   0.20344   0.71262   1.000
    H18     H    0.82842   0.12800   0.78307   1.000
    H19     H    0.84322   0.11975   0.91956   1.000
    H20     H    0.59891   0.73672   0.08000   1.000
    H21     H    0.45002   0.79643   0.28704   1.000
    H22     H    0.32711   0.87280   0.21781   1.000
    H23     H    0.34181   0.88245   0.08135   1.000
    H24     H    0.84919   0.41234   0.23525   1.000
    H25     H    0.69972   0.21100   0.29670   1.000
    H26     H    0.57699   0.28043   0.37280   1.000
    H27     H    0.59266   0.41704   0.38182   1.000
    H28     H    0.34942   0.58834   0.76517   1.000
    H29     H    0.19894   0.78900   0.70425   1.000
    H30     H    0.07617   0.71889   0.62895   1.000
    H31     H    0.09255   0.58238   0.61978   1.000
    C32     C    0.28152   0.30969   0.42361   1.000
    C33     C    0.21276   0.26639   0.38455   1.000
    C34     C    0.21828   0.26264   0.30835   1.000
    C35     C    0.29550   0.30132   0.27120   1.000
    C36     C    0.36487   0.34415   0.31017   1.000
    C37     C    0.35748   0.34904   0.38600   1.000
    C38     C    0.77953   0.69015   0.57542   1.000
    C39     C    0.71086   0.73324   0.61483   1.000
    C40     C    0.71659   0.73694   0.69102   1.000
    C41     C    0.79382   0.69831   0.72774   1.000
    C42     C    0.86312   0.65570   0.68847   1.000
    C43     C    0.85561   0.65092   0.61265   1.000
    C44     C    0.53289   0.07692   0.80719   1.000
    C45     C    0.46425   0.11653   0.76404   1.000
    C46     C    0.46987   0.19294   0.76035   1.000
    C47     C    0.54713   0.22962   0.79870   1.000
    C48     C    0.61635   0.19017   0.84143   1.000
    C49     C    0.60877   0.11415   0.84638   1.000
    C50     C    0.03068   0.92393   0.19127   1.000
    C51     C    0.96194   0.88399   0.23430   1.000
    C52     C    0.96758   0.80760   0.23776   1.000
    C53     C    0.04494   0.77124   0.19906   1.000
    C54     C    0.11432   0.81103   0.15650   1.000
    C55     C    0.10672   0.88705   0.15183   1.000
    C56     C    0.97214   0.19255   0.92423   1.000
    C57     C    0.04146   0.23510   0.88425   1.000
    C58     C    0.03605   0.23820   0.80798   1.000
    C59     C    0.95851   0.19961   0.77178   1.000
    C60     C    0.88862   0.15751   0.81160   1.000
    C61     C    0.89582   0.15329   0.88750   1.000
    C62     C    0.47021   0.80951   0.07549   1.000
    C63     C    0.53935   0.76649   0.11479   1.000
    C64     C    0.53402   0.76256   0.19102   1.000
    C65     C    0.45674   0.80088   0.22790   1.000
    C66     C    0.38709   0.84349   0.18877   1.000
    C67     C    0.39422   0.84851   0.11280   1.000
    C68     C    0.72081   0.42285   0.30846   1.000
    C69     C    0.78963   0.38349   0.26539   1.000
    C70     C    0.78395   0.30712   0.26205   1.000
    C71     C    0.70654   0.27023   0.30072   1.000
    C72     C    0.63713   0.30945   0.34324   1.000
    C73     C    0.64474   0.38543   0.34787   1.000
    C74     C    0.22112   0.57720   0.69246   1.000
    C75     C    0.28968   0.61692   0.73526   1.000
    C76     C    0.28367   0.69324   0.73865   1.000
    C77     C    0.20603   0.72978   0.70030   1.000
    C78     C    0.13660   0.69017   0.65819   1.000
    C79     C    0.14461   0.61421   0.65348   1.000
    N80     N    0.94262   0.13049   0.52681   1.000
    N81     N    0.44100   0.86867   0.47291   1.000
    N82     N    0.19348   0.97431   0.63240   1.000
    N83     N    0.69162   0.02567   0.36765   1.000
    N84     N    0.31238   0.36761   0.02612   1.000
    N85     N    0.81013   0.63349   0.97374   1.000
    N86     N    0.05976   0.52598   0.13236   1.000
    N87     N    0.56149   0.47427   0.86947   1.000
loop_
    _geom_bond_atom_site_label_1
    _geom_bond_atom_site_label_2
    _geom_bond_distance
    _geom_bond_site_symmetry_2
    _ccdc_geom_bond_type
    C62    C67       1.40235      .   S
    C62    C63       1.39745      .   S
    H20    C63       1.14506      .   S
    H23    C67       1.08879      .   S
    C67    C66       1.39629      .   S
    C63    C64       1.39862      .   S
    H15    C55       1.08942      .   S
    H14    C54       1.08960      .   S
    C55    C54       1.39482      .   S
    C55    C50       1.40307      .   S
    C54    C53       1.39609      .   S
    C66    H22       1.08958      .   S
    C66    C65       1.39609      .   S
    C64    C65       1.40415      .   S
    C50    C51       1.39690  1_455   S
    C53    H13       1.08873      .   S
    C53    C52       1.40389  1_455   S
    H1     C35       1.08750      .   S
    C65    H21       1.08870      .   S
    C51    C52       1.39882      .   S
    C51    H12       1.08832      .   S
    H24    C69       1.08792      .   S
    C70    C69       1.39885      .   S
    C70    C71       1.40411      .   S
    C69    C68       1.39769      .   S
    C35    C34       1.40455      .   S
    C35    C36       1.39684      .   S
    H2     C36       1.08964      .   S
    H25    C71       1.08858      .   S
    C71    C72       1.39586      .   S
    C34    C33       1.39873      .   S
    C68    C73       1.40309      .   S
    C36    C37       1.39469      .   S
    C72    C73       1.39460      .   S
    C72    H26       1.08966      .   S
    C73    H27       1.08939      .   S
    C33    H0        1.08776      .   S
    C33    C32       1.39728      .   S
    C37    H3        1.08953      .   S
    C37    C32       1.40324      .   S
    C38    C43       1.40324      .   S
    C38    C39       1.39725      .   S
    H7     C43       1.08954      .   S
    H4     C39       1.08775      .   S
    C43    C42       1.39486      .   S
    C39    C40       1.39893      .   S
    H31    C79       1.08943      .   S
    H30    C78       1.08958      .   S
    C79    C78       1.39492      .   S
    C79    C74       1.40309      .   S
    C78    C77       1.39629      .   S
    C42    H6        1.08965      .   S
    C42    C41       1.39628      .   S
    C40    C41       1.40391      .   S
    C74    C75       1.39705      .   S
    C77    H29       1.08873      .   S
    C77    C76       1.40394      .   S
    H17    C59       1.08870      .   S
    C41    H5        1.08869      .   S
    H8     C45       1.08783      .   S
    C75    C76       1.39842      .   S
    C75    H28       1.08776      .   S
    C46    C45       1.39906      .   S
    C46    C47       1.40330      .   S
    C45    C44       1.39770      .   S
    C59    C58       1.40378  1_655   S
    C59    C60       1.39600      .   S
    H18    C60       1.08960      .   S
    H9     C47       1.08872      .   S
    C47    C48       1.39680      .   S
    C44    C49       1.40312      .   S
    C58    C57       1.39909      .   S
    C60    C61       1.39465      .   S
    C48    C49       1.39478      .   S
    C48    H10       1.08954      .   S
    C49    H11       1.08945      .   S
    C57    H16       1.08785      .   S
    C57    C56       1.39724  1_455   S
    C61    H19       1.08952      .   S
    C61    C56       1.40326      .   S
