# CIF file generated by openbabel 2.4.90, see http://openbabel.sf.net
data_I
_chemical_name_common ''
_cell_length_a 11.6274
_cell_length_b 11.638
_cell_length_c 11.6507
_cell_angle_alpha 95.2968
_cell_angle_beta 116.299
_cell_angle_gamma 95.1862
_space_group_name_H-M_alt 'P 1'
_space_group_name_Hall 'P 1'
loop_
    _symmetry_equiv_pos_as_xyz
    x,y,z
loop_
    _atom_site_label
    _atom_site_type_symbol
    _atom_site_fract_x
    _atom_site_fract_y
    _atom_site_fract_z
    _atom_site_occupancy
    Ag0     Ag   0.93995   0.24799   0.56036   1.000
    Ag1     Ag   0.20607   0.14307   0.11892   1.000
    Ag2     Ag   0.00118   0.50186   0.50047   1.000
    Ag3     Ag   0.99948   0.99815   0.49879   1.000
    Ag4     Ag   0.61847   0.64409   0.70665   1.000
    Ag5     Ag   0.06008   0.75201   0.43966   1.000
    Ag6     Ag   0.79396   0.85693   0.88111   1.000
    Ag7     Ag   0.38156   0.35591   0.29337   1.000
loop_
    _geom_bond_atom_site_label_1
    _geom_bond_atom_site_label_2
    _geom_bond_distance
    _geom_bond_site_symmetry_2
    _ccdc_geom_bond_type
    Ag1    Ag7       2.98528      .   S
    Ag5    Ag3       3.09957  1_455   S
    Ag5    Ag2       3.14593      .   S
    Ag3    Ag0       3.14111  1_565   S
    Ag2    Ag0       3.18810  1_455   S
    Ag4    Ag6       2.98530      .   S
