# CIF file generated by openbabel 2.4.90, see http://openbabel.sf.net
data_I
_chemical_name_common ''
_cell_length_a 15.583
_cell_length_b 15.627
_cell_length_c 15.672
_cell_angle_alpha 68.747
_cell_angle_beta 74.069
_cell_angle_gamma 111.034
_space_group_name_H-M_alt 'P 1'
_space_group_name_Hall 'P 1'
loop_
    _symmetry_equiv_pos_as_xyz
    x,y,z
loop_
    _atom_site_label
    _atom_site_type_symbol
    _atom_site_fract_x
    _atom_site_fract_y
    _atom_site_fract_z
    _atom_site_occupancy
    Zr0     Zr   0.24391   0.93637   0.06383   1.000
    Zr1     Zr   0.50132   0.56561   0.69039   1.000
    Zr2     Zr   0.80913   0.81139   0.25640   1.000
    Zr3     Zr   0.43644   0.69292   0.99779   1.000
    Zr4     Zr   0.75611   0.06366   0.93610   1.000
    Zr5     Zr   0.49869   0.43441   0.30960   1.000
    Zr6     Zr   0.19088   0.18864   0.74356   1.000
    Zr7     Zr   0.56357   0.30711   0.00000   1.000
    Zr8     Zr   0.41316   0.58052   0.25087   1.000
    Zr9     Zr   0.67002   0.92013   0.16730   1.000
    Zr10    Zr   0.33281   0.16513   0.08590   1.000
    Zr11    Zr   0.24872   0.33781   0.82889   1.000
    Zr12    Zr   0.58685   0.41951   0.74914   1.000
    Zr13    Zr   0.32999   0.07990   0.83270   1.000
    Zr14    Zr   0.66720   0.83490   0.91410   1.000
    Zr15    Zr   0.75130   0.66222   0.17111   1.000
    Zr16    Zr   0.62576   0.74959   0.12589   1.000
    O17     O    0.63057   0.74930   0.06398   1.000
    O18     O    0.56349   0.69276   0.18769   1.000
    O19     O    0.62084   0.80701   0.13041   1.000
    O20     O    0.68780   0.74913   0.12144   1.000
    Zr21    Zr   0.37425   0.25044   0.87411   1.000
    O22     O    0.31221   0.25089   0.87856   1.000
    O23     O    0.37916   0.19302   0.86959   1.000
    O24     O    0.36944   0.25073   0.93602   1.000
    O25     O    0.43652   0.30727   0.81231   1.000
    C26     C    0.00518   0.92772   0.14455   1.000
    O27     O    0.09354   0.93346   0.11319   1.000
    O28     O    0.14221   0.05135   0.03951   1.000
    O29     O    0.94383   0.89196   0.17917   1.000
    C30     C    0.58095   0.65094   0.49484   1.000
    O31     O    0.66295   0.70874   0.40662   1.000
    O32     O    0.55546   0.62389   0.55599   1.000
    O33     O    0.59379   0.68328   0.35777   1.000
    C34     C    0.99483   0.07231   0.85537   1.000
    O35     O    0.90647   0.06657   0.88675   1.000
    O36     O    0.85780   0.94868   0.96044   1.000
    O37     O    0.05618   0.10807   0.82078   1.000
    C38     C    0.41906   0.34909   0.50516   1.000
    O39     O    0.44455   0.37614   0.44401   1.000
    O40     O    0.33706   0.29129   0.59337   1.000
    O41     O    0.40622   0.31674   0.64223   1.000
    C42     C    0.64499   0.14953   0.92698   1.000
    O43     O    0.54000   0.18260   0.90854   1.000
    O44     O    0.61342   0.20648   0.95360   1.000
    O45     O    0.67940   0.12233   0.93028   1.000
    C46     C    0.56948   0.42362   0.08065   1.000
    O47     O    0.54441   0.43014   0.16303   1.000
    O48     O    0.56788   0.38778   0.05519   1.000
    O49     O    0.58986   0.54849   0.09386   1.000
    C50     C    0.35502   0.85050   0.06934   1.000
    O51     O    0.46001   0.81743   0.08962   1.000
    O52     O    0.32061   0.87770   0.06785   1.000
    O53     O    0.38659   0.79355   0.04401   1.000
    C54     C    0.43053   0.57641   0.91822   1.000
    O55     O    0.41015   0.45154   0.90558   1.000
    O56     O    0.43213   0.61225   0.94370   1.000
    O57     O    0.45561   0.56988   0.83640   1.000
loop_
    _geom_bond_atom_site_label_1
    _geom_bond_atom_site_label_2
    _geom_bond_distance
    _geom_bond_site_symmetry_2
    _ccdc_geom_bond_type
    Zr16   O17       0.95429      .   S
    Zr14   O17       2.01747  1_556   S
    Zr16   O18       0.95405      .   S
    Zr8    O18       2.01564      .   S
    Zr16   O19       0.95314      .   S
    Zr9    O19       2.01449      .   S
    Zr16   O20       0.95273      .   S
    Zr15   O20       2.01269      .   S
    Zr21   O22       0.95272      .   S
    Zr11   O22       2.01267      .   S
    Zr21   O23       0.95313      .   S
    Zr13   O23       2.01442      .   S
    Zr21   O24       0.95431      .   S
    Zr10   O24       2.01751  1_554   S
    Zr21   O25       0.95405      .   S
    Zr12   O25       2.01565      .   S
    C26    O27       1.28585      .   S
    Zr0    O27       2.23465      .   S
    C26    O28       1.95066  1_565   S
    Zr21   O28       3.22581  1_556   S
    C26    O29       0.79531  1_455   S
    Zr2    O29       1.74918      .   S
    C30    O31       1.28700      .   S
    Zr2    O31       2.23603      .   S
    C30    O32       0.79484      .   S
    Zr1    O32       1.74926      .   S
    C30    O33       1.95301      .   S
    Zr16   O33       3.23015      .   S
    C34    O35       1.28588      .   S
    Zr4    O35       2.23464      .   S
    C34    O36       1.95080  1_545   S
    Zr16   O36       3.22594  1_554   S
    C34    O37       0.79526  1_655   S
    Zr6    O37       1.74917      .   S
    C38    O39       0.79487      .   S
    Zr5    O39       1.74937      .   S
    C38    O40       1.28691      .   S
    Zr6    O40       2.23578      .   S
    C38    O41       1.95299      .   S
    Zr21   O41       3.23010      .   S
    C42    O43       1.94579      .   S
    Zr21   O43       3.22523      .   S
    C42    O44       1.29563      .   S
    Zr7    O44       2.23633  1_554   S
    C42    O45       0.79603      .   S
    Zr4    O45       1.75029      .   S
    C46    O47       1.29501      .   S
    Zr5    O47       2.24392      .   S
    C46    O48       0.79442      .   S
    Zr7    O48       1.76160      .   S
    C46    O49       1.95837      .   S
    Zr16   O49       3.23681      .   S
    C50    O51       1.95410      .   S
    Zr16   O51       3.23306      .   S
    C50    O52       0.79495      .   S
    Zr0    O52       1.74912      .   S
    C50    O53       1.28634      .   S
    Zr3    O53       2.23495  1_556   S
    C54    O55       1.95388      .   S
    Zr21   O55       3.23195      .   S
    C54    O56       0.79456      .   S
    Zr3    O56       1.74861      .   S
    C54    O57       1.28673      .   S
    Zr1    O57       2.23568      .   S
