# CIF file generated by openbabel 2.4.90, see http://openbabel.sf.net
data_I
_chemical_name_common ''
_cell_length_a 19.848
_cell_length_b 19.84
_cell_length_c 15.506
_cell_angle_alpha 74.229
_cell_angle_beta 74.301
_cell_angle_gamma 82.636
_space_group_name_H-M_alt 'P 1'
_space_group_name_Hall 'P 1'
loop_
    _symmetry_equiv_pos_as_xyz
    x,y,z
loop_
    _atom_site_label
    _atom_site_type_symbol
    _atom_site_fract_x
    _atom_site_fract_y
    _atom_site_fract_z
    _atom_site_occupancy
    N0      N    0.82229   0.43864   0.57826   1.000
    N1      N    0.32229   0.93864   0.57826   1.000
    N2      N    0.32229   0.43864   0.57826   1.000
    N3      N    0.96841   0.65822   0.62597   1.000
    N4      N    0.46841   0.15823   0.62597   1.000
    N5      N    0.84173   0.03155   0.87404   1.000
    N6      N    0.82230   0.93864   0.57826   1.000
    N7      N    0.47929   0.60507   0.33034   1.000
    N8      N    0.34173   0.53154   0.87404   1.000
    N9      N    0.89483   0.02068   0.16977   1.000
    N10     N    0.02074   0.39494   0.66965   1.000
    N11     N    0.93878   0.82266   0.07779   1.000
    N12     N    0.06126   0.67734   0.92220   1.000
    N13     N    0.97929   0.10508   0.33034   1.000
    N14     N    0.39483   0.52068   0.16977   1.000
    N15     N    0.47928   0.10508   0.33034   1.000
    N16     N    0.34172   0.03155   0.87404   1.000
    N17     N    0.96841   0.15823   0.62597   1.000
    N18     N    0.65831   0.96846   0.12595   1.000
    N19     N    0.17773   0.06138   0.42173   1.000
    N20     N    0.10520   0.47933   0.83022   1.000
    N21     N    0.53162   0.34179   0.37403   1.000
    N22     N    0.06126   0.17734   0.92220   1.000
    N23     N    0.84173   0.53154   0.87404   1.000
    N24     N    0.15831   0.96846   0.12595   1.000
    N25     N    0.03162   0.34179   0.37403   1.000
    N26     N    0.43878   0.82266   0.07779   1.000
    N27     N    0.65831   0.46846   0.12595   1.000
    N28     N    0.39483   0.02068   0.16977   1.000
    N29     N    0.93878   0.32267   0.07779   1.000
    N30     N    0.43877   0.32267   0.07779   1.000
    N31     N    0.97929   0.60507   0.33034   1.000
    N32     N    0.89484   0.52068   0.16977   1.000
    N33     N    0.17774   0.56137   0.42173   1.000
    N34     N    0.67774   0.06138   0.42173   1.000
    N35     N    0.67774   0.56137   0.42173   1.000
    N36     N    0.60520   0.97932   0.83022   1.000
    N37     N    0.56126   0.17734   0.92220   1.000
    N38     N    0.15831   0.46846   0.12595   1.000
    N39     N    0.46841   0.65822   0.62597   1.000
    N40     N    0.10520   0.97932   0.83022   1.000
    N41     N    0.52074   0.39494   0.66965   1.000
    N42     N    0.56127   0.67734   0.92220   1.000
    N43     N    0.53163   0.84178   0.37403   1.000
    N44     N    0.03162   0.84178   0.37403   1.000
    N45     N    0.02074   0.89493   0.66965   1.000
    N46     N    0.60520   0.47933   0.83022   1.000
    N47     N    0.52075   0.89493   0.66965   1.000
    Zr48    Zr   0.44068   0.81785   0.58021   1.000
    O49     O    0.45135   0.82279   0.53502   1.000
    O50     O    0.41150   0.83691   0.59131   1.000
    O51     O    0.43509   0.78435   0.59916   1.000
    O52     O    0.46503   0.82685   0.59599   1.000
    Zr53    Zr   0.98314   0.09845   0.83192   1.000
    O54     O    0.98901   0.11021   0.78672   1.000
    O55     O    0.99100   0.12151   0.85068   1.000
    O56     O    0.00217   0.06884   0.84193   1.000
    O57     O    0.94977   0.09187   0.84946   1.000
    Zr58    Zr   0.94068   0.31786   0.58021   1.000
    O59     O    0.95135   0.32280   0.53502   1.000
    O60     O    0.91150   0.33692   0.59131   1.000
    O61     O    0.93509   0.28435   0.59916   1.000
    O62     O    0.96503   0.32685   0.59599   1.000
    Zr63    Zr   0.94069   0.81785   0.58021   1.000
    O64     O    0.91150   0.83691   0.59131   1.000
    O65     O    0.96503   0.82685   0.59599   1.000
    O66     O    0.93509   0.78435   0.59916   1.000
    O67     O    0.95135   0.82279   0.53502   1.000
    Zr68    Zr   0.15919   0.46834   0.62597   1.000
    O69     O    0.15873   0.49453   0.58934   1.000
    O70     O    0.19082   0.45268   0.62186   1.000
    O71     O    0.13704   0.44474   0.63030   1.000
    O72     O    0.14964   0.48118   0.66281   1.000
    Zr73    Zr   0.15919   0.96833   0.62597   1.000
    O74     O    0.19082   0.95267   0.62186   1.000
    O75     O    0.15873   0.99453   0.58934   1.000
    O76     O    0.13704   0.94474   0.63030   1.000
    O77     O    0.14964   0.98118   0.66281   1.000
    Zr78    Zr   0.53168   0.84102   0.87418   1.000
    O79     O    0.55542   0.86307   0.86966   1.000
    O80     O    0.50547   0.84198   0.91057   1.000
    O81     O    0.54708   0.80925   0.87884   1.000
    O82     O    0.51895   0.85045   0.83722   1.000
    Zr83    Zr   0.65919   0.46834   0.62597   1.000
    O84     O    0.69082   0.45268   0.62186   1.000
    O85     O    0.64964   0.48118   0.66281   1.000
    O86     O    0.65873   0.49453   0.58934   1.000
    O87     O    0.63704   0.44474   0.63030   1.000
    Zr88    Zr   0.59864   0.48317   0.33179   1.000
    O89     O    0.61039   0.48908   0.28659   1.000
    O90     O    0.56902   0.50215   0.34182   1.000
    O91     O    0.59206   0.44977   0.34936   1.000
    O92     O    0.62167   0.49100   0.35062   1.000
    Zr93    Zr   0.81773   0.44055   0.08038   1.000
    O94     O    0.83682   0.41134   0.09147   1.000
    O95     O    0.78426   0.43495   0.09936   1.000
    O96     O    0.82262   0.45124   0.03518   1.000
    O97     O    0.82675   0.46491   0.09612   1.000
    Zr98    Zr   0.55934   0.18216   0.41978   1.000
    O99     O    0.53500   0.17316   0.40401   1.000
    O100    O    0.56494   0.21566   0.40083   1.000
    O101    O    0.54868   0.17722   0.46497   1.000
    O102    O    0.58853   0.16310   0.40868   1.000
    Zr103   Zr   0.68230   0.55945   0.91961   1.000
    O104    O    0.66322   0.58867   0.90852   1.000
    O105    O    0.67329   0.53509   0.90387   1.000
    O106    O    0.71578   0.56506   0.90062   1.000
    O107    O    0.67741   0.54876   0.96480   1.000
    Zr108   Zr   0.90140   0.51684   0.66820   1.000
    O109    O    0.90798   0.55024   0.65061   1.000
    O110    O    0.87836   0.50902   0.64937   1.000
    O111    O    0.93101   0.49786   0.65817   1.000
    O112    O    0.88965   0.51093   0.71340   1.000
    Zr113   Zr   0.46836   0.65898   0.12580   1.000
    O114    O    0.44463   0.63693   0.13030   1.000
    O115    O    0.48109   0.64955   0.16276   1.000
    O116    O    0.45296   0.69075   0.12113   1.000
    O117    O    0.49457   0.65802   0.08942   1.000
    Zr118   Zr   0.44068   0.31786   0.58021   1.000
    O119    O    0.41150   0.33692   0.59131   1.000
    O120    O    0.46503   0.32685   0.59599   1.000
    O121    O    0.43508   0.28435   0.59916   1.000
    O122    O    0.45135   0.32280   0.53502   1.000
    Zr123   Zr   0.96836   0.65898   0.12580   1.000
    O124    O    0.98109   0.64955   0.16276   1.000
    O125    O    0.95296   0.69075   0.12113   1.000
    O126    O    0.94463   0.63693   0.13032   1.000
    O127    O    0.99457   0.65802   0.08942   1.000
    Zr128   Zr   0.03168   0.34102   0.87418   1.000
    O129    O    0.04708   0.30926   0.87884   1.000
    O130    O    0.00547   0.34199   0.91057   1.000
    O131    O    0.01895   0.35046   0.83722   1.000
    O132    O    0.05541   0.36308   0.86966   1.000
    Zr133   Zr   0.84084   0.03168   0.37402   1.000
    O134    O    0.80921   0.04734   0.37811   1.000
    O135    O    0.85039   0.01883   0.33718   1.000
    O136    O    0.84130   0.00548   0.41063   1.000
    O137    O    0.86299   0.05527   0.36969   1.000
    Zr138   Zr   0.18230   0.05946   0.91961   1.000
    O139    O    0.17740   0.04877   0.96480   1.000
    O140    O    0.17328   0.03510   0.90387   1.000
    O141    O    0.21577   0.06506   0.90062   1.000
    O142    O    0.16321   0.08867   0.90851   1.000
    Zr143   Zr   0.65919   0.96833   0.62597   1.000
    O144    O    0.65874   0.99453   0.58934   1.000
    O145    O    0.69082   0.95267   0.62186   1.000
    O146    O    0.63704   0.94474   0.63030   1.000
    O147    O    0.64964   0.98118   0.66281   1.000
    Zr148   Zr   0.01689   0.40155   0.16808   1.000
    O149    O    0.05026   0.40814   0.15054   1.000
    O150    O    0.01101   0.38980   0.21327   1.000
    O151    O    0.99786   0.43116   0.15807   1.000
    O152    O    0.00903   0.37849   0.14933   1.000
    Zr153   Zr   0.40139   0.51684   0.66820   1.000
    O154    O    0.38965   0.51093   0.71340   1.000
    O155    O    0.37836   0.50902   0.64937   1.000
    O156    O    0.40797   0.55024   0.65063   1.000
    O157    O    0.43101   0.49786   0.65817   1.000
    Zr158   Zr   0.34084   0.03168   0.37402   1.000
    O159    O    0.36299   0.05527   0.36969   1.000
    O160    O    0.35039   0.01883   0.33718   1.000
    O161    O    0.34129   0.00548   0.41063   1.000
    O162    O    0.30921   0.04734   0.37811   1.000
    Zr163   Zr   0.40139   0.01685   0.66820   1.000
    O164    O    0.37836   0.00902   0.64937   1.000
    O165    O    0.43101   0.99786   0.65817   1.000
    O166    O    0.40797   0.05025   0.65063   1.000
    O167    O    0.38964   0.01093   0.71340   1.000
    Zr168   Zr   0.34084   0.53167   0.37402   1.000
    O169    O    0.35039   0.51883   0.33718   1.000
    O170    O    0.30921   0.54734   0.37811   1.000
    O171    O    0.34129   0.50548   0.41063   1.000
    O172    O    0.36299   0.55526   0.36969   1.000
    Zr173   Zr   0.90139   0.01685   0.66820   1.000
    O174    O    0.88965   0.01093   0.71340   1.000
    O175    O    0.90797   0.05025   0.65061   1.000
    O176    O    0.87836   0.00902   0.64937   1.000
    O177    O    0.93101   0.99786   0.65817   1.000
    Zr178   Zr   0.98314   0.59845   0.83192   1.000
    O179    O    0.98902   0.61021   0.78672   1.000
    O180    O    0.00217   0.56883   0.84193   1.000
    O181    O    0.94977   0.59186   0.84946   1.000
    O182    O    0.99101   0.62151   0.85068   1.000
    Zr183   Zr   0.31773   0.44055   0.08038   1.000
    O184    O    0.32675   0.46491   0.09612   1.000
    O185    O    0.32262   0.45124   0.03518   1.000
    O186    O    0.33682   0.41134   0.09147   1.000
    O187    O    0.28425   0.43495   0.09936   1.000
    Zr188   Zr   0.53168   0.34102   0.87418   1.000
    O189    O    0.50547   0.34199   0.91057   1.000
    O190    O    0.51895   0.35046   0.83722   1.000
    O191    O    0.55542   0.36308   0.86966   1.000
    O192    O    0.54708   0.30926   0.87884   1.000
    Zr193   Zr   0.59864   0.98316   0.33179   1.000
    O194    O    0.61039   0.98908   0.28659   1.000
    O195    O    0.56902   0.00215   0.34182   1.000
    O196    O    0.59206   0.94976   0.34936   1.000
    O197    O    0.62168   0.99100   0.35062   1.000
    Zr198   Zr   0.09864   0.98316   0.33179   1.000
    O199    O    0.06902   0.00215   0.34182   1.000
    O200    O    0.12167   0.99100   0.35062   1.000
    O201    O    0.11039   0.98907   0.28659   1.000
    O202    O    0.09206   0.94976   0.34936   1.000
    Zr203   Zr   0.81774   0.94054   0.08038   1.000
    O204    O    0.78426   0.93494   0.09936   1.000
    O205    O    0.83683   0.91133   0.09147   1.000
    O206    O    0.82675   0.96491   0.09612   1.000
    O207    O    0.82263   0.95124   0.03518   1.000
    Zr208   Zr   0.18230   0.55946   0.91961   1.000
    O209    O    0.16321   0.58867   0.90851   1.000
    O210    O    0.17741   0.54876   0.96480   1.000
    O211    O    0.17328   0.53510   0.90387   1.000
    O212    O    0.21578   0.56506   0.90062   1.000
    Zr213   Zr   0.03168   0.84102   0.87418   1.000
    O214    O    0.04708   0.80925   0.87884   1.000
    O215    O    0.00547   0.84198   0.91057   1.000
    O216    O    0.05542   0.86307   0.86966   1.000
    O217    O    0.01895   0.85045   0.83722   1.000
    Zr218   Zr   0.51689   0.40155   0.16808   1.000
    O219    O    0.51102   0.38980   0.21305   1.000
    O220    O    0.49786   0.43116   0.15807   1.000
    O221    O    0.50903   0.37849   0.14933   1.000
    O222    O    0.55026   0.40814   0.15054   1.000
    Zr223   Zr   0.09864   0.48317   0.33179   1.000
    O224    O    0.12167   0.49100   0.35062   1.000
    O225    O    0.11039   0.48908   0.28659   1.000
    O226    O    0.09205   0.44977   0.34936   1.000
    O227    O    0.06902   0.50215   0.34182   1.000
    Zr228   Zr   0.68230   0.05946   0.91961   1.000
    O229    O    0.66321   0.08867   0.90852   1.000
    O230    O    0.67328   0.03510   0.90387   1.000
    O231    O    0.67741   0.04877   0.96480   1.000
    O232    O    0.71578   0.06506   0.90062   1.000
    Zr233   Zr   0.51690   0.90155   0.16808   1.000
    O234    O    0.55027   0.90814   0.15054   1.000
    O235    O    0.50903   0.87848   0.14933   1.000
    O236    O    0.49786   0.93116   0.15807   1.000
    O237    O    0.51102   0.88979   0.21305   1.000
    Zr238   Zr   0.46836   0.15899   0.12580   1.000
    O239    O    0.49457   0.15803   0.08942   1.000
    O240    O    0.45295   0.19075   0.12113   1.000
    O241    O    0.44462   0.13693   0.13030   1.000
    O242    O    0.48108   0.14956   0.16276   1.000
    Zr243   Zr   0.31773   0.94054   0.08038   1.000
    O244    O    0.33683   0.91133   0.09147   1.000
    O245    O    0.28426   0.93494   0.09936   1.000
    O246    O    0.32675   0.96491   0.09612   1.000
    O247    O    0.32263   0.95124   0.03518   1.000
    Zr248   Zr   0.48314   0.09845   0.83192   1.000
    O249    O    0.48901   0.11021   0.78672   1.000
    O250    O    0.44976   0.09187   0.84946   1.000
    O251    O    0.50217   0.06884   0.84193   1.000
    O252    O    0.49100   0.12151   0.85068   1.000
    Zr253   Zr   0.55935   0.68215   0.41978   1.000
    O254    O    0.53500   0.67316   0.40401   1.000
    O255    O    0.58853   0.66309   0.40868   1.000
    O256    O    0.56494   0.71566   0.40083   1.000
    O257    O    0.54868   0.67721   0.46497   1.000
    Zr258   Zr   0.05934   0.68215   0.41978   1.000
    O259    O    0.03500   0.67316   0.40401   1.000
    O260    O    0.08853   0.66309   0.40868   1.000
    O261    O    0.06494   0.71566   0.40083   1.000
    O262    O    0.04868   0.67721   0.46497   1.000
    Zr263   Zr   0.48314   0.59845   0.83192   1.000
    O264    O    0.49101   0.62151   0.85068   1.000
    O265    O    0.48902   0.61021   0.78672   1.000
    O266    O    0.50217   0.56883   0.84193   1.000
    O267    O    0.44977   0.59186   0.84946   1.000
    Zr268   Zr   0.84084   0.53167   0.37402   1.000
    O269    O    0.80921   0.54734   0.37811   1.000
    O270    O    0.84130   0.50548   0.41063   1.000
    O271    O    0.85039   0.51883   0.33718   1.000
    O272    O    0.86299   0.55526   0.36969   1.000
    Zr273   Zr   0.01689   0.90155   0.16808   1.000
    O274    O    0.05026   0.90813   0.15054   1.000
    O275    O    0.99786   0.93116   0.15807   1.000
    O276    O    0.01102   0.88979   0.21327   1.000
    O277    O    0.00903   0.87848   0.14933   1.000
    Zr278   Zr   0.05934   0.18216   0.41978   1.000
    O279    O    0.08853   0.16310   0.40868   1.000
    O280    O    0.03500   0.17316   0.40401   1.000
    O281    O    0.06494   0.21566   0.40083   1.000
    O282    O    0.04867   0.17722   0.46497   1.000
    Zr283   Zr   0.96836   0.15899   0.12580   1.000
    O284    O    0.94462   0.13693   0.13032   1.000
    O285    O    0.95296   0.19075   0.12113   1.000
    O286    O    0.98108   0.14956   0.16276   1.000
    O287    O    0.99457   0.15803   0.08942   1.000
loop_
    _geom_bond_atom_site_label_1
    _geom_bond_atom_site_label_2
    _geom_bond_distance
    _geom_bond_site_symmetry_2
    _ccdc_geom_bond_type
    Zr48   O49       0.65815      .   S
    N43    O49       2.53026      .   S
    Zr48   O50       0.65842      .   S
    N1     O50       2.51092      .   S
    Zr48   O51       0.65998      .   S
    N39    O51       2.45579      .   S
    Zr48   O52       0.65954      .   S
    N47    O52       2.50150      .   S
    Zr53   O54       0.65804      .   S
    N17    O54       2.53953      .   S
    Zr53   O55       0.65841      .   S
    N22    O55       2.51033  1_455   S
    Zr53   O56       0.66121  1_655   S
    N40    O56       2.53228  1_565   S
    Zr53   O57       0.65967      .   S
    N5     O57       2.47861      .   S
    Zr58   O59       0.65815      .   S
    N25    O59       2.53022  1_455   S
    Zr58   O60       0.65842      .   S
    N0     O60       2.51092      .   S
    Zr58   O61       0.65999      .   S
    N17    O61       2.45580      .   S
    Zr58   O62       0.65950      .   S
    N10    O62       2.50144  1_455   S
    Zr63   O64       0.65842      .   S
    N6     O64       2.51092      .   S
    Zr63   O65       0.65950      .   S
    N45    O65       2.50144  1_455   S
    Zr63   O66       0.65998      .   S
    N3     O66       2.45579      .   S
    Zr63   O67       0.65815      .   S
    N44    O67       2.53022  1_455   S
    Zr68   O69       0.65863      .   S
    N33    O69       2.52586      .   S
    Zr68   O70       0.65869      .   S
    N2     O70       2.51103      .   S
    Zr68   O71       0.66078      .   S
    N10    O71       2.48427      .   S
    Zr68   O72       0.65985      .   S
    N20    O72       2.49696      .   S
    Zr73   O74       0.65868      .   S
    N1     O74       2.51103      .   S
    Zr73   O75       0.65869      .   S
    N19    O75       2.52591  1_545   S
    Zr73   O76       0.66078      .   S
    N45    O76       2.48428      .   S
    Zr73   O77       0.65990      .   S
    N40    O77       2.49695      .   S
    Zr78   O79       0.66077      .   S
    N36    O79       2.48202      .   S
    Zr78   O80       0.65861      .   S
    N26    O80       2.52092  1_554   S
    Zr78   O81       0.65852      .   S
    N42    O81       2.51753      .   S
    Zr78   O82       0.65970      .   S
    N47    O82       2.49864      .   S
    Zr83   O84       0.65869      .   S
    N0     O84       2.51103      .   S
    Zr83   O85       0.65985      .   S
    N46    O85       2.49696      .   S
    Zr83   O86       0.65863      .   S
    N35    O86       2.52586      .   S
    Zr83   O87       0.66078      .   S
    N41    O87       2.48427      .   S
    Zr88   O89       0.65813      .   S
    N27    O89       2.53948      .   S
    Zr88   O90       0.66126      .   S
    N7     O90       2.53279      .   S
    Zr88   O91       0.65968      .   S
    N21    O91       2.47785      .   S
    Zr88   O92       0.65845      .   S
    N35    O92       2.51051      .   S
    Zr93   O94       0.65870      .   S
    N29    O94       2.50849      .   S
    Zr93   O95       0.66015      .   S
    N27    O95       2.45487      .   S
    Zr93   O96       0.65817      .   S
    N23    O96       2.53057  1_556   S
    Zr93   O97       0.65962      .   S
    N32    O97       2.50198      .   S
    Zr98   O99       0.65953      .   S
    N15    O99       2.50149      .   S
    Zr98   O100      0.65998      .   S
    N21    O100      2.45580      .   S
    Zr98   O101      0.65820      .   S
    N4     O101      2.53032      .   S
    Zr98   O102      0.65842      .   S
    N34    O102      2.51089      .   S
    Zr103  O104      0.65869      .   S
    N42    O104      2.50845      .   S
    Zr103  O105      0.65962      .   S
    N46    O105      2.50199      .   S
    Zr103  O106      0.66016      .   S
    N23    O106      2.45487      .   S
    Zr103  O107      0.65816      .   S
    N27    O107      2.53057  1_554   S
    Zr108  O109      0.65969      .   S
    N3     O109      2.47789      .   S
    Zr108  O110      0.65843      .   S
    N0     O110      2.51053      .   S
    Zr108  O111      0.66127      .   S
    N10    O111      2.53268  1_455   S
    Zr108  O112      0.65813      .   S
    N23    O112      2.53944      .   S
    Zr113  O114      0.66084      .   S
    N14    O114      2.48205      .   S
    Zr113  O115      0.65975      .   S
    N7     O115      2.49866      .   S
    Zr113  O116      0.65853      .   S
    N26    O116      2.51751      .   S
    Zr113  O117      0.65861      .   S
    N42    O117      2.52084  1_556   S
    Zr118  O119      0.65842      .   S
    N2     O119      2.51092      .   S
    Zr118  O120      0.65954      .   S
    N41    O120      2.50149      .   S
    Zr118  O121      0.65999      .   S
    N4     O121      2.45580      .   S
    Zr118  O122      0.65815      .   S
    N21    O122      2.53026      .   S
    Zr123  O124      0.65972      .   S
    N31    O124      2.49867      .   S
    Zr123  O125      0.65853      .   S
    N11    O125      2.51751      .   S
    Zr123  O126      0.66077      .   S
    N32    O126      2.48209      .   S
    Zr123  O127      0.65858      .   S
    N12    O127      2.52082  1_456   S
    Zr128  O129      0.65852      .   S
    N22    O129      2.51755      .   S
    Zr128  O130      0.65859      .   S
    N29    O130      2.52090  1_654   S
    Zr128  O131      0.65968      .   S
    N10    O131      2.49865      .   S
    Zr128  O132      0.66077      .   S
    N20    O132      2.48201      .   S
    Zr133  O134      0.65870      .   S
    N34    O134      2.51102      .   S
    Zr133  O135      0.65989      .   S
    N9     O135      2.49699      .   S
    Zr133  O136      0.65857      .   S
    N6     O136      2.52603  1_565   S
    Zr133  O137      0.66075      .   S
    N13    O137      2.48426      .   S
    Zr138  O139      0.65816      .   S
    N24    O139      2.53065  1_564   S
    Zr138  O140      0.65966      .   S
    N40    O140      2.50202  1_565   S
    Zr138  O141      0.66015      .   S
    N16    O141      2.45488      .   S
    Zr138  O142      0.65872      .   S
    N22    O142      2.50844      .   S
    Zr143  O144      0.65868      .   S
    N34    O144      2.52590  1_545   S
    Zr143  O145      0.65869      .   S
    N6     O145      2.51103      .   S
    Zr143  O146      0.66078      .   S
    N47    O146      2.48428      .   S
    Zr143  O147      0.65990      .   S
    N36    O147      2.49695      .   S
    Zr148  O149      0.65967      .   S
    N38    O149      2.47865      .   S
    Zr148  O150      0.65798      .   S
    N25    O150      2.53956      .   S
    Zr148  O151      0.66121  1_455   S
    N32    O151      2.53210      .   S
    Zr148  O152      0.65841      .   S
    N29    O152      2.51028  1_655   S
    Zr153  O154      0.65813      .   S
    N8     O154      2.53944      .   S
    Zr153  O155      0.65843      .   S
    N2     O155      2.51053      .   S
    Zr153  O156      0.65967      .   S
    N39    O156      2.47783      .   S
    Zr153  O157      0.66127      .   S
    N41    O157      2.53275      .   S
    Zr158  O159      0.66075      .   S
    N15    O159      2.48426      .   S
    Zr158  O160      0.65989      .   S
    N28    O160      2.49699      .   S
    Zr158  O161      0.65857      .   S
    N1     O161      2.52603  1_565   S
    Zr158  O162      0.65870      .   S
    N19    O162      2.51102      .   S
    Zr163  O164      0.65842      .   S
    N1     O164      2.51056  1_565   S
    Zr163  O165      0.66135  1_545   S
    N47    O165      2.53289      .   S
    Zr163  O166      0.65968      .   S
    N4     O166      2.47783      .   S
    Zr163  O167      0.65813      .   S
    N16    O167      2.53944      .   S
    Zr168  O169      0.65984      .   S
    N14    O169      2.49701      .   S
    Zr168  O170      0.65870      .   S
    N33    O170      2.51102      .   S
    Zr168  O171      0.65851      .   S
    N2     O171      2.52599      .   S
    Zr168  O172      0.66076      .   S
    N7     O172      2.48427      .   S
    Zr173  O174      0.65813      .   S
    N5     O174      2.53944      .   S
    Zr173  O175      0.65970      .   S
    N17    O175      2.47789      .   S
    Zr173  O176      0.65842      .   S
    N6     O176      2.51056  1_565   S
    Zr173  O177      0.66135  1_545   S
    N45    O177      2.53283  1_455   S
    Zr178  O179      0.65804      .   S
    N3     O179      2.53953      .   S
    Zr178  O180      0.66121  1_655   S
    N20    O180      2.53207      .   S
    Zr178  O181      0.65968      .   S
    N23    O181      2.47862      .   S
    Zr178  O182      0.65841      .   S
    N12    O182      2.51031  1_455   S
    Zr183  O184      0.65962      .   S
    N14    O184      2.50198      .   S
    Zr183  O185      0.65817      .   S
    N8     O185      2.53057  1_556   S
    Zr183  O186      0.65870      .   S
    N30    O186      2.50849      .   S
    Zr183  O187      0.66015      .   S
    N38    O187      2.45487      .   S
    Zr188  O189      0.65862      .   S
    N30    O189      2.52092  1_554   S
    Zr188  O190      0.65970      .   S
    N41    O190      2.49864      .   S
    Zr188  O191      0.66077      .   S
    N46    O191      2.48201      .   S
    Zr188  O192      0.65852      .   S
    N37    O192      2.51755      .   S
    Zr193  O194      0.65813      .   S
    N18    O194      2.53947      .   S
    Zr193  O195      0.66135  1_565   S
    N15    O195      2.53296      .   S
    Zr193  O196      0.65968      .   S
    N43    O196      2.47783      .   S
    Zr193  O197      0.65844      .   S
    N34    O197      2.51057  1_545   S
    Zr198  O199      0.66135  1_565   S
    N13    O199      2.53288  1_655   S
    Zr198  O200      0.65844      .   S
    N19    O200      2.51057  1_545   S
    Zr198  O201      0.65813      .   S
    N24    O201      2.53947      .   S
    Zr198  O202      0.65968      .   S
    N44    O202      2.47783      .   S
    Zr203  O204      0.66015      .   S
    N18    O204      2.45487      .   S
    Zr203  O205      0.65870      .   S
    N11    O205      2.50848      .   S
    Zr203  O206      0.65965      .   S
    N9     O206      2.50200  1_545   S
    Zr203  O207      0.65817      .   S
    N5     O207      2.53066  1_546   S
    Zr208  O209      0.65872      .   S
    N12    O209      2.50845      .   S
    Zr208  O210      0.65816      .   S
    N38    O210      2.53057  1_554   S
    Zr208  O211      0.65963      .   S
    N20    O211      2.50199      .   S
    Zr208  O212      0.66015      .   S
    N8     O212      2.45488      .   S
    Zr213  O214      0.65852      .   S
    N12    O214      2.51755      .   S
    Zr213  O215      0.65859      .   S
    N11    O215      2.52090  1_654   S
    Zr213  O216      0.66077      .   S
    N40    O216      2.48201      .   S
    Zr213  O217      0.65967      .   S
    N45    O217      2.49865      .   S
    Zr218  O219      0.65482      .   S
    N21    O219      2.54273      .   S
    Zr218  O220      0.66123      .   S
    N14    O220      2.53214      .   S
    Zr218  O221      0.65842      .   S
    N30    O221      2.51033      .   S
    Zr218  O222      0.65968      .   S
    N27    O222      2.47866      .   S
    Zr223  O224      0.65845      .   S
    N33    O224      2.51051      .   S
    Zr223  O225      0.65813      .   S
    N38    O225      2.53948      .   S
    Zr223  O226      0.65968      .   S
    N25    O226      2.47784      .   S
    Zr223  O227      0.66126      .   S
    N31    O227      2.53273  1_655   S
    Zr228  O229      0.65869      .   S
    N37    O229      2.50844      .   S
    Zr228  O230      0.65966      .   S
    N36    O230      2.50202  1_565   S
    Zr228  O231      0.65816      .   S
    N18    O231      2.53065  1_564   S
    Zr228  O232      0.66015      .   S
    N5     O232      2.45487      .   S
    Zr233  O234      0.65967      .   S
    N18    O234      2.47866      .   S
    Zr233  O235      0.65842      .   S
    N26    O235      2.51034      .   S
    Zr233  O236      0.66123      .   S
    N28    O236      2.53236  1_545   S
    Zr233  O237      0.65482      .   S
    N43    O237      2.54273      .   S
    Zr238  O239      0.65860      .   S
    N37    O239      2.52084  1_556   S
    Zr238  O240      0.65853      .   S
    N30    O240      2.51751      .   S
    Zr238  O241      0.66084      .   S
    N28    O241      2.48205      .   S
    Zr238  O242      0.65975      .   S
    N15    O242      2.49866      .   S
    Zr243  O244      0.65870      .   S
    N26    O244      2.50848      .   S
    Zr243  O245      0.66015      .   S
    N24    O245      2.45489      .   S
    Zr243  O246      0.65966      .   S
    N28    O246      2.50200  1_545   S
    Zr243  O247      0.65817      .   S
    N16    O247      2.53066  1_546   S
    Zr248  O249      0.65804      .   S
    N4     O249      2.53953      .   S
    Zr248  O250      0.65967      .   S
    N16    O250      2.47862      .   S
    Zr248  O251      0.66123      .   S
    N36    O251      2.53233  1_565   S
    Zr248  O252      0.65843      .   S
    N37    O252      2.51038      .   S
    Zr253  O254      0.65954      .   S
    N7     O254      2.50150      .   S
    Zr253  O255      0.65842      .   S
    N35    O255      2.51090      .   S
    Zr253  O256      0.65998      .   S
    N43    O256      2.45580      .   S
    Zr253  O257      0.65820      .   S
    N39    O257      2.53033      .   S
    Zr258  O259      0.65950      .   S
    N31    O259      2.50144  1_655   S
    Zr258  O260      0.65842      .   S
    N33    O260      2.51090      .   S
    Zr258  O261      0.65998      .   S
    N44    O261      2.45580      .   S
    Zr258  O262      0.65820      .   S
    N3     O262      2.53028  1_655   S
    Zr263  O264      0.65843      .   S
    N42    O264      2.51038      .   S
    Zr263  O265      0.65804      .   S
    N39    O265      2.53954      .   S
    Zr263  O266      0.66123      .   S
    N46    O266      2.53211      .   S
    Zr263  O267      0.65968      .   S
    N8     O267      2.47860      .   S
    Zr268  O269      0.65870      .   S
    N35    O269      2.51102      .   S
    Zr268  O270      0.65851      .   S
    N0     O270      2.52599      .   S
    Zr268  O271      0.65984      .   S
    N32    O271      2.49701      .   S
    Zr268  O272      0.66076      .   S
    N31    O272      2.48428      .   S
    Zr273  O274      0.65967      .   S
    N24    O274      2.47864      .   S
    Zr273  O275      0.66121  1_455   S
    N9     O275      2.53231  1_545   S
    Zr273  O276      0.65798      .   S
    N44    O276      2.53956      .   S
    Zr273  O277      0.65841      .   S
    N11    O277      2.51028  1_655   S
    Zr278  O279      0.65842      .   S
    N19    O279      2.51089      .   S
    Zr278  O280      0.65949      .   S
    N13    O280      2.50145  1_655   S
    Zr278  O281      0.65998      .   S
    N25    O281      2.45580      .   S
    Zr278  O282      0.65820      .   S
    N17    O282      2.53028  1_655   S
    Zr283  O284      0.66077      .   S
    N9     O284      2.48208      .   S
    Zr283  O285      0.65852      .   S
    N29    O285      2.51751      .   S
    Zr283  O286      0.65972      .   S
    N13    O286      2.49867      .   S
    Zr283  O287      0.65858      .   S
    N22    O287      2.52082  1_456   S
