# CIF file generated by openbabel 2.4.90, see http://openbabel.sf.net
data_I
_chemical_name_common ''
_cell_length_a 18.424
_cell_length_b 18.433
_cell_length_c 18.433
_cell_angle_alpha 60.144
_cell_angle_beta 60.154
_cell_angle_gamma 60.156
_space_group_name_H-M_alt 'P 1'
_space_group_name_Hall 'P 1'
loop_
    _symmetry_equiv_pos_as_xyz
    x,y,z
loop_
    _atom_site_label
    _atom_site_type_symbol
    _atom_site_fract_x
    _atom_site_fract_y
    _atom_site_fract_z
    _atom_site_occupancy
    N0      N    0.00002   0.49999   0.99998   1.000
    N1      N    0.00002   0.49999   0.49996   1.000
    N2      N    0.50002   0.49999   0.99997   1.000
    N3      N    0.00002   0.99999   0.49998   1.000
    N4      N    0.50002   0.99999   0.49998   1.000
    N5      N    0.50002   0.99999   0.99998   1.000
    Zr6     Zr   0.25002   0.25005   0.25004   1.000
    O7      O    0.35443   0.14560   0.14559   1.000
    O8      O    0.35444   0.35446   0.14561   1.000
    O9      O    0.14562   0.35446   0.35443   1.000
    O10     O    0.14560   0.14559   0.35442   1.000
    O11     O    0.14559   0.35443   0.14558   1.000
    O12     O    0.35444   0.14562   0.35445   1.000
    Zr13    Zr   0.75001   0.74993   0.74992   1.000
    O14     O    0.64559   0.85436   0.64551   1.000
    O15     O    0.64560   0.64552   0.85434   1.000
    O16     O    0.85444   0.64555   0.85438   1.000
    O17     O    0.64561   0.85439   0.85438   1.000
    O18     O    0.85442   0.64552   0.64550   1.000
    O19     O    0.85444   0.85439   0.64553   1.000
loop_
    _geom_bond_atom_site_label_1
    _geom_bond_atom_site_label_2
    _geom_bond_distance
    _geom_bond_site_symmetry_2
    _ccdc_geom_bond_type
    Zr6    O7        2.72627      .   S
    N5     O7        3.80038  1_566   S
    Zr6    O8        2.72419      .   S
    N2     O8        3.79747  1_556   S
    Zr6    O9        2.72499      .   S
    N1     O9        3.79848      .   S
    Zr6    O10       2.72482      .   S
    N3     O10       3.79844  1_565   S
    Zr6    O11       2.72492      .   S
    N0     O11       3.79859  1_556   S
    Zr6    O12       2.72429      .   S
    N4     O12       3.79753  1_565   S
    Zr13   O14       2.72429      .   S
    N4     O14       3.79761      .   S
    Zr13   O15       2.72419      .   S
    N2     O15       3.79747      .   S
    Zr13   O16       2.72490      .   S
    N0     O16       3.79849  1_455   S
    Zr13   O17       2.72629      .   S
    N5     O17       3.80047      .   S
    Zr13   O18       2.72538      .   S
    N1     O18       3.79862  1_455   S
    Zr13   O19       2.72481      .   S
    N3     O19       3.79844  1_455   S
