# CIF file generated by openbabel 2.4.90, see http://openbabel.sf.net
data_I
_chemical_name_common ''
_cell_length_a 5.996
_cell_length_b 15.947
_cell_length_c 16.662
_cell_angle_alpha 90
_cell_angle_beta 90.015
_cell_angle_gamma 90.015
_space_group_name_H-M_alt 'P 1'
_space_group_name_Hall 'P 1'
loop_
    _symmetry_equiv_pos_as_xyz
    x,y,z
loop_
    _atom_site_label
    _atom_site_type_symbol
    _atom_site_fract_x
    _atom_site_fract_y
    _atom_site_fract_z
    _atom_site_occupancy
    Zr0     Zr   0.37186   0.95754   0.39894   1.000
    Zr1     Zr   0.12814   0.45764   0.60103   1.000
    Zr2     Zr   0.62850   0.54289   0.89899   1.000
    Zr3     Zr   0.87153   0.04280   0.10097   1.000
    Zr4     Zr   0.68275   0.06329   0.27984   1.000
    Zr5     Zr   0.81730   0.56341   0.72013   1.000
    Zr6     Zr   0.31753   0.43724   0.77989   1.000
    Zr7     Zr   0.18239   0.93713   0.22009   1.000
    Zr8     Zr   0.07808   0.96200   0.50480   1.000
    Zr9     Zr   0.42199   0.46206   0.49518   1.000
    Zr10    Zr   0.92239   0.53833   0.00483   1.000
    Zr11    Zr   0.57752   0.03826   0.99516   1.000
    Zr12    Zr   0.67559   0.98387   0.28828   1.000
    Zr13    Zr   0.72091   0.10332   0.21563   1.000
    Zr14    Zr   0.82441   0.48401   0.71171   1.000
    Zr15    Zr   0.77911   0.60346   0.78434   1.000
    Zr16    Zr   0.32446   0.51664   0.78838   1.000
    Zr17    Zr   0.27940   0.39727   0.71563   1.000
    Zr18    Zr   0.17552   0.01654   0.21161   1.000
    Zr19    Zr   0.22052   0.89714   0.28434   1.000
    O20     O    0.77544   0.54061   0.95191   1.000
    O21     O    0.79622   0.07306   0.15830   1.000
    O22     O    0.72453   0.04053   0.04807   1.000
    O23     O    0.17895   0.97683   0.21585   1.000
    O24     O    0.70183   0.08330   0.24773   1.000
    O25     O    0.20145   0.91713   0.25222   1.000
    O26     O    0.67917   0.02358   0.28406   1.000
    O27     O    0.29619   0.92734   0.34164   1.000
    O28     O    0.22497   0.95977   0.45187   1.000
    O29     O    0.27506   0.45985   0.54811   1.000
    O30     O    0.20377   0.42746   0.65833   1.000
    O31     O    0.82085   0.52371   0.71592   1.000
    O32     O    0.29847   0.41726   0.74776   1.000
    O33     O    0.79821   0.58344   0.75223   1.000
    O34     O    0.32100   0.47694   0.78414   1.000
    O35     O    0.70381   0.57318   0.84166   1.000
    N36     N    0.65295   0.18228   0.46617   1.000
    O37     O    0.84334   0.28922   0.52498   1.000
    O38     O    0.57950   0.09679   0.43966   1.000
    O39     O    0.65509   0.13630   0.39160   1.000
    N40     N    0.34742   0.31806   0.96642   1.000
    O41     O    0.42091   0.40357   0.93981   1.000
    O42     O    0.15676   0.21115   0.02506   1.000
    O43     O    0.34527   0.36411   0.89173   1.000
    N44     N    0.15239   0.81799   0.03383   1.000
    O45     O    0.15457   0.86402   0.10839   1.000
    O46     O    0.07896   0.90349   0.06030   1.000
    O47     O    0.34314   0.71115   0.97504   1.000
    N48     N    0.84716   0.68229   0.53377   1.000
    O49     O    0.92058   0.59684   0.56030   1.000
    O50     O    0.65672   0.78918   0.47497   1.000
    O51     O    0.84503   0.63636   0.60836   1.000
loop_
    _geom_bond_atom_site_label_1
    _geom_bond_atom_site_label_2
    _geom_bond_distance
    _geom_bond_site_symmetry_2
    _ccdc_geom_bond_type
    Zr10   O20       1.24687  1_554   S
    Zr2    O20       1.24687      .   S
    Zr3    O21       1.16171      .   S
    Zr13   O21       1.16171      .   S
    Zr3    O22       1.24691      .   S
    Zr11   O22       1.24691  1_556   S
    Zr18   O23       0.63751  1_545   S
    Zr7    O23       0.63751      .   S
    Zr13   O24       0.63343      .   S
    Zr4    O24       0.63343      .   S
    Zr7    O25       0.63341      .   S
    Zr19   O25       0.63341      .   S
    Zr4    O26       0.63750      .   S
    Zr12   O26       0.63750  1_565   S
    Zr19   O27       1.16146      .   S
    Zr0    O27       1.16146      .   S
    Zr0    O28       1.24709      .   S
    Zr8    O28       1.24709      .   S
    Zr9    O29       1.24715      .   S
    Zr1    O29       1.24715      .   S
    Zr1    O30       1.16137      .   S
    Zr17   O30       1.16137      .   S
    Zr14   O31       0.63732      .   S
    Zr5    O31       0.63732      .   S
    Zr17   O32       0.63338      .   S
    Zr6    O32       0.63338      .   S
    Zr5    O33       0.63345      .   S
    Zr15   O33       0.63345      .   S
    Zr6    O34       0.63736      .   S
    Zr16   O34       0.63736      .   S
    Zr15   O35       1.16174      .   S
    Zr2    O35       1.16174      .   S
    N36    O37       2.27382      .   S
    Zr1    O37       3.42522  1_455   S
    N36    O38       1.49903      .   S
    Zr0    O38       2.63438  1_565   S
    N36    O39       1.44281      .   S
    Zr4    O39       2.20243      .   S
    N40    O41       1.50003      .   S
    Zr2    O41       2.63563      .   S
    N40    O42       2.27330  1_556   S
    Zr3    O42       3.42502  1_655   S
    N40    O43       1.44504      .   S
    Zr6    O43       2.20461      .   S
    N44    O45       1.44289      .   S
    Zr7    O45       2.20247      .   S
    N44    O46       1.49924      .   S
    Zr3    O46       2.63501  1_645   S
    N44    O47       2.27437  1_554   S
    Zr2    O47       3.42579      .   S
    N48    O49       1.49873      .   S
    Zr1    O49       2.63394  1_455   S
    N48    O50       2.27381      .   S
    Zr0    O50       3.42514      .   S
    N48    O51       1.44254      .   S
    Zr5    O51       2.20211      .   S
