# CIF file generated by openbabel 2.4.90, see http://openbabel.sf.net
data_I
_chemical_name_common ''
_cell_length_a 13.968
_cell_length_b 14.562
_cell_length_c 24.165
_cell_angle_alpha 89.979
_cell_angle_beta 90.005
_cell_angle_gamma 116.971
_space_group_name_H-M_alt 'P 1'
_space_group_name_Hall 'P 1'
loop_
    _symmetry_equiv_pos_as_xyz
    x,y,z
loop_
    _atom_site_label
    _atom_site_type_symbol
    _atom_site_fract_x
    _atom_site_fract_y
    _atom_site_fract_z
    _atom_site_occupancy
    C0      C    0.92666   0.13222   0.60266   1.000
    C1      C    0.23365   0.14168   0.57114   1.000
    C2      C    0.92944   0.82469   0.60380   1.000
    C3      C    0.79283   0.40266   0.25151   1.000
    C4      C    0.07346   0.36736   0.10252   1.000
    C5      C    0.76651   0.35803   0.07118   1.000
    C6      C    0.07093   0.67486   0.10390   1.000
    C7      C    0.20741   0.09697   0.75148   1.000
    C8      C    0.07341   0.86778   0.39740   1.000
    C9      C    0.76644   0.85833   0.42896   1.000
    C10     C    0.07062   0.17532   0.39620   1.000
    C11     C    0.20721   0.59731   0.74857   1.000
    C12     C    0.92663   0.63261   0.89755   1.000
    C13     C    0.23355   0.64194   0.92894   1.000
    C14     C    0.92917   0.32511   0.89621   1.000
    C15     C    0.79268   0.90301   0.24860   1.000
