# CIF file generated by openbabel 2.4.90, see http://openbabel.sf.net
data_I
_chemical_name_common ''
_cell_length_a 18.419
_cell_length_b 18.425
_cell_length_c 18.425
_cell_angle_alpha 60.219
_cell_angle_beta 60.19
_cell_angle_gamma 60.192
_space_group_name_H-M_alt 'P 1'
_space_group_name_Hall 'P 1'
loop_
    _symmetry_equiv_pos_as_xyz
    x,y,z
loop_
    _atom_site_label
    _atom_site_type_symbol
    _atom_site_fract_x
    _atom_site_fract_y
    _atom_site_fract_z
    _atom_site_occupancy
    N0      N    0.99999   0.50000   0.49999   1.000
    N1      N    0.99999   1.00000   0.49999   1.000
    N2      N    0.49999   0.50000   0.99995   1.000
    N3      N    0.49999   1.00000   0.49999   1.000
    N4      N    0.99999   0.50000   0.99998   1.000
    N5      N    0.49999   1.00000   0.99999   1.000
    Zr6     Zr   0.74998   0.74997   0.74996   1.000
    Zr7     Zr   0.25000   0.25003   0.25002   1.000
    O8      O    0.33258   0.33258   0.16752   1.000
    O9      O    0.66741   0.66742   0.83241   1.000
    O10     O    0.33258   0.16754   0.33257   1.000
    O11     O    0.66741   0.83246   0.66741   1.000
    O12     O    0.16743   0.33252   0.16746   1.000
    O13     O    0.83256   0.66747   0.83252   1.000
    O14     O    0.33250   0.16747   0.16746   1.000
    O15     O    0.16752   0.33258   0.33257   1.000
    O16     O    0.16743   0.16747   0.33251   1.000
    O17     O    0.66749   0.83253   0.83252   1.000
    O18     O    0.83247   0.66742   0.66741   1.000
    O19     O    0.83256   0.83253   0.66746   1.000
loop_
    _geom_bond_atom_site_label_1
    _geom_bond_atom_site_label_2
    _geom_bond_distance
    _geom_bond_site_symmetry_2
    _ccdc_geom_bond_type
    N2     O8        4.36886  1_556   S
    Zr7    O8        2.15449      .   S
    N2     O9        4.36886      .   S
    Zr6    O9        2.15448      .   S
    N3     O10       4.36895  1_565   S
    Zr7    O10       2.15455      .   S
    N3     O11       4.36903      .   S
    Zr6    O11       2.15457      .   S
    N4     O12       4.36991  1_656   S
    Zr7    O12       2.15472      .   S
    N4     O13       4.36978      .   S
    Zr6    O13       2.15467      .   S
    Zr7    O14       2.15385      .   S
    N5     O14       4.36912  1_566   S
    Zr7    O15       2.15360      .   S
    N0     O15       4.36789  1_655   S
    Zr7    O16       2.15463      .   S
    N1     O16       4.36973  1_665   S
    Zr6    O17       2.15386      .   S
    N5     O17       4.36914      .   S
    Zr6    O18       2.15361      .   S
    N0     O18       4.36791      .   S
    Zr6    O19       2.15463      .   S
    N1     O19       4.36973      .   S
