# CIF file generated by openbabel 2.4.90, see http://openbabel.sf.net
data_I
_chemical_name_common ''
_cell_length_a 14.01
_cell_length_b 16.787
_cell_length_c 16.818
_cell_angle_alpha 103.804
_cell_angle_beta 109.775
_cell_angle_gamma 109.721
_space_group_name_H-M_alt 'P 1'
_space_group_name_Hall 'P 1'
loop_
    _symmetry_equiv_pos_as_xyz
    x,y,z
loop_
    _atom_site_label
    _atom_site_type_symbol
    _atom_site_fract_x
    _atom_site_fract_y
    _atom_site_fract_z
    _atom_site_occupancy
    C0      C    0.45920   0.42287   0.12875   1.000
    C1      C    0.34838   0.18208   0.14572   1.000
    C2      C    0.26034   0.38072   0.37646   1.000
    C3      C    0.04107   0.87132   0.57742   1.000
    C4      C    0.15190   0.85478   0.81827   1.000
    C5      C    0.23974   0.62329   0.61935   1.000
    C6      C    0.54084   0.57710   0.87123   1.000
    C7      C    0.65168   0.81797   0.85428   1.000
    C8      C    0.73972   0.61933   0.62356   1.000
    C9      C    0.95901   0.12872   0.42260   1.000
    C10     C    0.84815   0.14527   0.18174   1.000
    C11     C    0.76032   0.37674   0.38070   1.000
