# CIF file generated by openbabel 2.4.90, see http://openbabel.sf.net
data_I
_chemical_name_common ''
_cell_length_a 18.42
_cell_length_b 18.43
_cell_length_c 18.426
_cell_angle_alpha 60.177
_cell_angle_beta 60.213
_cell_angle_gamma 60.202
_space_group_name_H-M_alt 'P 1'
_space_group_name_Hall 'P 1'
loop_
    _symmetry_equiv_pos_as_xyz
    x,y,z
loop_
    _atom_site_label
    _atom_site_type_symbol
    _atom_site_fract_x
    _atom_site_fract_y
    _atom_site_fract_z
    _atom_site_occupancy
    N0      N    0.99999   0.49999   1.00000   1.000
    N1      N    0.49999   1.00000   0.49997   1.000
    N2      N    0.49999   0.99999   0.99998   1.000
    N3      N    0.99999   0.99999   0.99998   1.000
    N4      N    0.99999   0.49999   0.49992   1.000
    N5      N    0.49999   0.49999   0.50000   1.000
    Zr6     Zr   0.74998   0.74994   0.24994   1.000
    O7      O    0.66755   0.85108   0.31399   1.000
    O8      O    0.81399   0.85107   0.16753   1.000
    O9      O    0.66744   0.85101   0.16753   1.000
    O10     O    0.85112   0.81396   0.16743   1.000
    O11     O    0.85111   0.66750   0.31393   1.000
    O12     O    0.85107   0.66744   0.16745   1.000
    O13     O    0.66745   0.81398   0.35109   1.000
    O14     O    0.81397   0.66752   0.35106   1.000
    O15     O    0.66744   0.66751   0.35101   1.000
    O16     O    0.81390   0.66732   0.16734   1.000
    O17     O    0.66742   0.81383   0.16730   1.000
    O18     O    0.66740   0.66731   0.31384   1.000
    Zr19    Zr   0.25001   0.25005   0.75005   1.000
    O20     O    0.33244   0.14891   0.68599   1.000
    O21     O    0.18600   0.14892   0.83246   1.000
    O22     O    0.33255   0.14898   0.83245   1.000
    O23     O    0.33258   0.33268   0.68615   1.000
    O24     O    0.33257   0.18615   0.83268   1.000
    O25     O    0.18608   0.33267   0.83265   1.000
    O26     O    0.14891   0.33255   0.83254   1.000
    O27     O    0.14887   0.18603   0.83255   1.000
    O28     O    0.14888   0.33249   0.68602   1.000
    O29     O    0.33255   0.33248   0.64898   1.000
    O30     O    0.33253   0.18600   0.64885   1.000
    O31     O    0.18602   0.33247   0.64890   1.000
loop_
    _geom_bond_atom_site_label_1
    _geom_bond_atom_site_label_2
    _geom_bond_distance
    _geom_bond_site_symmetry_2
    _ccdc_geom_bond_type
    Zr6    O7        2.18341      .   S
    N1     O7        4.38513      .   S
    Zr6    O8        2.18174      .   S
    N3     O8        4.38318  1_556   S
    Zr6    O9        2.18010      .   S
    N2     O9        4.38133  1_556   S
    Zr6    O10       2.18184      .   S
    N3     O10       4.38315  1_556   S
    Zr6    O11       2.18083      .   S
    N4     O11       4.38138      .   S
    Zr6    O12       2.18228      .   S
    N0     O12       4.38370  1_556   S
    Zr6    O13       2.18340      .   S
    N1     O13       4.38518      .   S
    Zr6    O14       2.18068      .   S
    N4     O14       4.38155      .   S
    Zr6    O15       2.18084      .   S
    N5     O15       4.38208      .   S
    Zr6    O16       2.18270      .   S
    N0     O16       4.38386  1_556   S
    Zr6    O17       2.18080      .   S
    N2     O17       4.38137  1_556   S
    Zr6    O18       2.18139      .   S
    N5     O18       4.38229      .   S
    Zr19   O20       2.18354      .   S
    N1     O20       4.38561  1_565   S
    Zr19   O21       2.18174      .   S
    N3     O21       4.38318  1_665   S
    Zr19   O22       2.18001      .   S
    N2     O22       4.38102  1_565   S
    Zr19   O23       2.18139      .   S
    N5     O23       4.38230      .   S
    Zr19   O24       2.18059      .   S
    N2     O24       4.38118  1_565   S
    Zr19   O25       2.18270      .   S
    N0     O25       4.38384  1_655   S
    Zr19   O26       2.18227      .   S
    N0     O26       4.38369  1_655   S
    Zr19   O27       2.18184      .   S
    N3     O27       4.38314  1_665   S
    Zr19   O28       2.18126      .   S
    N4     O28       4.38289  1_655   S
    Zr19   O29       2.18085      .   S
    N5     O29       4.38208      .   S
    Zr19   O30       2.18410      .   S
    N1     O30       4.38516  1_565   S
    Zr19   O31       2.18121      .   S
    N4     O31       4.38290  1_655   S
