# CIF file generated by openbabel 2.4.90, see http://openbabel.sf.net
data_I
_chemical_name_common ''
_cell_length_a 23.068
_cell_length_b 16.552
_cell_length_c 16.552
_cell_angle_alpha 90.011
_cell_angle_beta 89.999
_cell_angle_gamma 90.002
_space_group_name_H-M_alt 'P 1'
_space_group_name_Hall 'P 1'
loop_
    _symmetry_equiv_pos_as_xyz
    x,y,z
loop_
    _atom_site_label
    _atom_site_type_symbol
    _atom_site_fract_x
    _atom_site_fract_y
    _atom_site_fract_z
    _atom_site_occupancy
    H0      H    0.09299   0.15554   0.24534   1.000
    H1      H    0.59299   0.15554   0.24534   1.000
    H2      H    0.09294   0.84443   0.75467   1.000
    H3      H    0.59294   0.84443   0.75467   1.000
    H4      H    0.09295   0.75448   0.15554   1.000
    H5      H    0.59295   0.75448   0.15554   1.000
    H6      H    0.09298   0.24555   0.84447   1.000
    H7      H    0.59298   0.24555   0.84447   1.000
    H8      H    0.15702   0.34449   0.74545   1.000
    H9      H    0.65702   0.34449   0.74545   1.000
    H10     H    0.15704   0.65553   0.25455   1.000
    H11     H    0.65704   0.65553   0.25455   1.000
    H12     H    0.15703   0.74544   0.65556   1.000
    H13     H    0.65703   0.74544   0.65556   1.000
    H14     H    0.15704   0.25457   0.34442   1.000
    H15     H    0.65704   0.25457   0.34442   1.000
    H16     H    0.40701   0.84447   0.75465   1.000
    H17     H    0.90701   0.84447   0.75465   1.000
    H18     H    0.40706   0.15558   0.24532   1.000
    H19     H    0.90706   0.15558   0.24532   1.000
    H20     H    0.40705   0.24553   0.84445   1.000
    H21     H    0.90705   0.24553   0.84445   1.000
    H22     H    0.40702   0.75446   0.15550   1.000
    H23     H    0.90702   0.75446   0.15552   1.000
    H24     H    0.34297   0.65552   0.25454   1.000
    H25     H    0.84298   0.65552   0.25454   1.000
    H26     H    0.34296   0.34448   0.74545   1.000
    H27     H    0.84296   0.34448   0.74545   1.000
    H28     H    0.34297   0.25458   0.34443   1.000
    H29     H    0.84297   0.25458   0.34443   1.000
    H30     H    0.34296   0.74544   0.65556   1.000
    H31     H    0.84296   0.74544   0.65550   1.000
    H32     H    0.00000   0.48687   0.40220   1.000
    H33     H    0.50000   0.48687   0.40220   1.000
    H34     H    0.00000   0.94041   0.17551   1.000
    H35     H    0.50000   0.94041   0.17551   1.000
    H36     H    1.00000   0.51314   0.59774   1.000
    H37     H    0.50000   0.51314   0.59774   1.000
    H38     H    1.00000   0.05959   0.82448   1.000
    H39     H    0.50000   0.05959   0.82448   1.000
    H40     H    1.00000   0.59775   0.48687   1.000
    H41     H    0.50000   0.59775   0.48687   1.000
    H42     H    1.00000   0.82437   0.94042   1.000
    H43     H    0.50000   0.82437   0.94042   1.000
    H44     H    0.00000   0.40226   0.51310   1.000
    H45     H    0.50000   0.40226   0.51310   1.000
    H46     H    0.00000   0.17564   0.05957   1.000
    H47     H    0.50000   0.17564   0.05957   1.000
    H48     H    0.25000   0.01314   0.90222   1.000
    H49     H    0.75000   0.01314   0.90222   1.000
    H50     H    0.25000   0.55963   0.67567   1.000
    H51     H    0.75000   0.55963   0.67567   1.000
    H52     H    0.25000   0.98686   0.09777   1.000
    H53     H    0.75000   0.98686   0.09777   1.000
    H54     H    0.25000   0.44039   0.32432   1.000
    H55     H    0.75000   0.44039   0.32432   1.000
    H56     H    0.25000   0.90229   0.98689   1.000
    H57     H    0.75000   0.90229   0.98689   1.000
    H58     H    0.25000   0.67549   0.44040   1.000
    H59     H    0.75000   0.67549   0.44040   1.000
    H60     H    0.25000   0.09772   0.01310   1.000
    H61     H    0.75000   0.09772   0.01310   1.000
    H62     H    0.25000   0.32455   0.55950   1.000
    H63     H    0.75000   0.32455   0.55950   1.000
    C64     C    0.05247   0.12360   0.23470   1.000
    C65     C    0.55247   0.12360   0.23470   1.000
    C66     C    0.05263   0.04340   0.20776   1.000
    C67     C    0.55263   0.04340   0.20776   1.000
    C68     C    0.49997   0.83641   0.75102   1.000
    C69     C    0.99999   0.99700   0.80439   1.000
    C70     C    0.49999   0.99700   0.80439   1.000
    C71     C    0.99996   0.75121   0.72014   1.000
    C72     C    0.10838   0.00140   0.18974   1.000
    C73     C    0.60838   0.00140   0.18974   1.000
    C74     C    0.05243   0.87638   0.76528   1.000
    C75     C    0.55243   0.87638   0.76528   1.000
    C76     C    0.05261   0.95659   0.79224   1.000
    C77     C    0.55261   0.95659   0.79224   1.000
    C78     C    0.10837   0.99858   0.81024   1.000
    C79     C    0.60837   0.99858   0.81024   1.000
    C80     C    0.05245   0.76509   0.12359   1.000
    C81     C    0.55245   0.76509   0.12359   1.000
    C82     C    0.05262   0.79209   0.04341   1.000
    C83     C    0.55262   0.79209   0.04341   1.000
    C84     C    0.10837   0.81017   0.00140   1.000
    C85     C    0.60837   0.81017   0.00140   1.000
    C86     C    0.05247   0.23492   0.87640   1.000
    C87     C    0.55247   0.23492   0.87640   1.000
    C88     C    0.05263   0.20792   0.95659   1.000
    C89     C    0.55263   0.20792   0.95659   1.000
    C90     C    0.10838   0.18985   0.99850   1.000
    C91     C    0.60838   0.18985   0.99850   1.000
    C92     C    0.19754   0.37643   0.73485   1.000
    C93     C    0.69754   0.37643   0.73485   1.000
    C94     C    0.19737   0.45663   0.70789   1.000
    C95     C    0.69737   0.45663   0.70789   1.000
    C96     C    0.14162   0.49861   0.68984   1.000
    C97     C    0.64162   0.49861   0.68984   1.000
    C98     C    0.19755   0.62358   0.26514   1.000
    C99     C    0.69755   0.62358   0.26514   1.000
    O100    O    0.10716   0.81622   0.92415   1.000
    O101    O    0.60716   0.81622   0.92415   1.000
    O102    O    0.04935   0.29177   0.71850   1.000
    O103    O    0.54935   0.29177   0.71850   1.000
    O104    O    0.15522   0.18047   0.95921   1.000
    C105    C    0.19738   0.54339   0.29210   1.000
    C106    C    0.69738   0.54339   0.29210   1.000
    C107    C    0.14163   0.50141   0.31019   1.000
    C108    C    0.64163   0.50141   0.31019   1.000
    C109    C    0.19754   0.73481   0.62362   1.000
    C110    C    0.69754   0.73481   0.62362   1.000
    C111    C    0.19737   0.70780   0.54343   1.000
    C112    C    0.69737   0.70780   0.54343   1.000
    C113    C    0.14162   0.68981   0.50140   1.000
    C114    C    0.64162   0.68981   0.50140   1.000
    C115    C    0.19755   0.26521   0.37637   1.000
    C116    C    0.69755   0.26521   0.37637   1.000
    C117    C    0.19738   0.29222   0.45655   1.000
    C118    C    0.69738   0.29222   0.45655   1.000
    C119    C    0.14162   0.31022   0.49856   1.000
    C120    C    0.64163   0.31022   0.49856   1.000
    C121    C    0.44752   0.87640   0.76527   1.000
    C122    C    0.94752   0.87640   0.76527   1.000
    C123    C    0.44737   0.95660   0.79223   1.000
    C124    C    0.94737   0.95660   0.79223   1.000
    C125    C    0.39162   0.99861   0.81025   1.000
    C126    C    0.89162   0.99861   0.81025   1.000
    C127    C    0.44756   0.12362   0.23472   1.000
    C128    C    0.94757   0.12362   0.23472   1.000
    C129    C    0.44739   0.04342   0.20775   1.000
    C130    C    0.94739   0.04342   0.20775   1.000
    C131    C    0.39163   0.00142   0.18975   1.000
    C132    C    0.89163   0.00142   0.18975   1.000
    C133    C    0.44755   0.23491   0.87640   1.000
    C134    C    0.94755   0.23491   0.87640   1.000
    C135    C    0.44738   0.20792   0.95658   1.000
    C136    C    0.94738   0.20792   0.95658   1.000
    C137    C    0.39163   0.18984   0.99856   1.000
    C138    C    0.89163   0.18984   0.99856   1.000
    C139    C    0.44753   0.76509   0.12350   1.000
    C140    C    0.94753   0.76509   0.12350   1.000
    C141    C    0.44737   0.79208   0.04340   1.000
    C142    C    0.94737   0.79208   0.04340   1.000
    C143    C    0.39162   0.81016   0.00140   1.000
    C144    C    0.89162   0.81016   0.00140   1.000
    C145    C    0.30246   0.62358   0.26514   1.000
    C146    C    0.80246   0.62358   0.26514   1.000
    C147    C    0.30263   0.54339   0.29210   1.000
    C148    C    0.80263   0.54339   0.29210   1.000
    C149    C    0.35838   0.50140   0.31014   1.000
    C150    C    0.85838   0.50140   0.31014   1.000
    C151    C    0.30245   0.37643   0.73485   1.000
    C152    C    0.80245   0.37643   0.73485   1.000
    C153    C    0.30262   0.45662   0.70789   1.000
    C154    C    0.80262   0.45662   0.70789   1.000
    C155    C    0.35837   0.49860   0.68981   1.000
    C156    C    0.85837   0.49860   0.68981   1.000
    C157    C    0.30246   0.26521   0.37637   1.000
    C158    C    0.80246   0.26521   0.37637   1.000
    C159    C    0.30262   0.29222   0.45655   1.000
    C160    C    0.80263   0.29222   0.45655   1.000
    C161    C    0.35838   0.31023   0.49856   1.000
    C162    C    0.85838   0.31023   0.49856   1.000
    C163    C    0.30245   0.73481   0.62362   1.000
    C164    C    0.80245   0.73481   0.62362   1.000
    C165    C    0.30262   0.70780   0.54343   1.000
    C166    C    0.80262   0.70780   0.54343   1.000
    C167    C    0.35837   0.68978   0.50143   1.000
    C168    C    0.85838   0.68979   0.50143   1.000
    C169    C    0.00002   0.16360   0.24897   1.000
    C170    C    0.50002   0.16360   0.24897   1.000
    C171    C    0.00001   0.00300   0.19560   1.000
    C172    C    0.50001   0.00300   0.19560   1.000
    C173    C    0.00003   0.24880   0.27985   1.000
    C174    C    0.50003   0.24880   0.27985   1.000
    C175    C    0.99997   0.83641   0.75102   1.000
    C176    C    0.49997   0.75121   0.72014   1.000
    C177    C    0.99999   0.75085   0.16357   1.000
    C178    C    0.49999   0.75085   0.16357   1.000
    C179    C    0.99999   0.80423   0.00300   1.000
    C180    C    0.50000   0.80423   0.00300   1.000
    C181    C    0.99998   0.72007   0.24879   1.000
    C182    C    0.49998   0.72007   0.24879   1.000
    C183    C    0.00001   0.24916   0.83642   1.000
    C184    C    0.50001   0.24916   0.83642   1.000
    C185    C    0.00000   0.19577   0.99698   1.000
    C186    C    0.50001   0.19577   0.99698   1.000
    C187    C    0.00002   0.27994   0.75120   1.000
    C188    C    0.50002   0.27994   0.75120   1.000
    C189    C    0.24999   0.33644   0.74900   1.000
    C190    C    0.74999   0.33644   0.74900   1.000
    C191    C    0.25000   0.49703   0.69576   1.000
    C192    C    0.75000   0.49703   0.69576   1.000
    C193    C    0.24999   0.25122   0.77988   1.000
    C194    C    0.74999   0.25122   0.77988   1.000
    C195    C    0.25001   0.66357   0.25090   1.000
    C196    C    0.75001   0.66357   0.25090   1.000
    C197    C    0.25000   0.50298   0.30423   1.000
    C198    C    0.75000   0.50298   0.30423   1.000
    C199    C    0.25001   0.74879   0.22010   1.000
    C200    C    0.75001   0.74879   0.22013   1.000
    C201    C    0.25000   0.74906   0.66360   1.000
    C202    C    0.75000   0.74906   0.66360   1.000
    C203    C    0.25000   0.69564   0.50303   1.000
    C204    C    0.75000   0.69563   0.50303   1.000
    C205    C    0.25000   0.77984   0.74883   1.000
    C206    C    0.75000   0.77984   0.74883   1.000
    C207    C    0.25001   0.25096   0.33639   1.000
    C208    C    0.75001   0.25096   0.33639   1.000
    C209    C    0.25000   0.30440   0.49695   1.000
    C210    C    0.75000   0.30439   0.49695   1.000
    C211    C    0.25001   0.22016   0.25116   1.000
    C212    C    0.75001   0.22016   0.25116   1.000
    O213    O    0.04937   0.28148   0.29171   1.000
    O214    O    0.54937   0.28148   0.29171   1.000
    O215    O    0.15524   0.04074   0.18043   1.000
    O216    O    0.65524   0.04074   0.18043   1.000
    O217    O    0.10716   0.92413   0.18377   1.000
    O218    O    0.60716   0.92413   0.18377   1.000
    O219    O    0.04930   0.71851   0.70828   1.000
    O220    O    0.54930   0.71851   0.70828   1.000
    O221    O    0.15522   0.95924   0.81955   1.000
    O222    O    0.65522   0.95924   0.81955   1.000
    O223    O    0.10716   0.07585   0.81620   1.000
    O224    O    0.60716   0.07585   0.81620   1.000
    O225    O    0.04932   0.70823   0.28149   1.000
    O226    O    0.54932   0.70823   0.28149   1.000
    O227    O    0.15521   0.81952   0.04079   1.000
    O228    O    0.65521   0.81952   0.04079   1.000
    O229    O    0.65522   0.18047   0.95921   1.000
    O230    O    0.10716   0.18379   0.07580   1.000
    O231    O    0.60716   0.18379   0.07580   1.000
    O232    O    0.20065   0.21853   0.79174   1.000
    O233    O    0.70065   0.21853   0.79174   1.000
    O234    O    0.09478   0.45925   0.68040   1.000
    O235    O    0.59478   0.45925   0.68045   1.000
    O236    O    0.14284   0.57588   0.68379   1.000
    O237    O    0.64284   0.57588   0.68370   1.000
    O238    O    0.20068   0.78147   0.20824   1.000
    O239    O    0.70068   0.78147   0.20824   1.000
    O240    O    0.09478   0.54077   0.31950   1.000
    O241    O    0.59478   0.54077   0.31952   1.000
    O242    O    0.14284   0.42414   0.31619   1.000
    O243    O    0.64284   0.42414   0.31619   1.000
    O244    O    0.20066   0.79179   0.78148   1.000
    O245    O    0.70066   0.79178   0.78148   1.000
    O246    O    0.09477   0.68045   0.54078   1.000
    O247    O    0.59477   0.68045   0.54078   1.000
    O248    O    0.14284   0.68375   0.42415   1.000
    O249    O    0.64284   0.68375   0.42415   1.000
    O250    O    0.20067   0.20822   0.21850   1.000
    O251    O    0.70067   0.20822   0.21850   1.000
    O252    O    0.09477   0.31955   0.45921   1.000
    O253    O    0.59478   0.31955   0.45921   1.000
    O254    O    0.14285   0.31626   0.57583   1.000
    O255    O    0.64285   0.31626   0.57583   1.000
    O256    O    0.45062   0.71853   0.70828   1.000
    O257    O    0.95063   0.71853   0.70828   1.000
    O258    O    0.34476   0.95927   0.81956   1.000
    O259    O    0.84476   0.95927   0.81956   1.000
    O260    O    0.39284   0.07588   0.81621   1.000
    O261    O    0.89284   0.07588   0.81621   1.000
    O262    O    0.45070   0.28150   0.29171   1.000
    O263    O    0.95070   0.28150   0.29171   1.000
    O264    O    0.34478   0.04077   0.18040   1.000
    O265    O    0.84478   0.04077   0.18043   1.000
    O266    O    0.39284   0.92416   0.18375   1.000
    O267    O    0.89284   0.92416   0.18375   1.000
    O268    O    0.45068   0.29177   0.71850   1.000
    O269    O    0.95068   0.29177   0.71850   1.000
    O270    O    0.34479   0.18049   0.95920   1.000
    O271    O    0.84479   0.18049   0.95920   1.000
    O272    O    0.39284   0.18379   0.07583   1.000
    O273    O    0.89284   0.18379   0.07583   1.000
    O274    O    0.45065   0.70823   0.28149   1.000
    O275    O    0.95065   0.70823   0.28149   1.000
    O276    O    0.34478   0.81953   0.04078   1.000
    O277    O    0.84478   0.81953   0.04078   1.000
    O278    O    0.39284   0.81622   0.92410   1.000
    O279    O    0.89284   0.81622   0.92414   1.000
    O280    O    0.29935   0.78147   0.20824   1.000
    O281    O    0.79935   0.78147   0.20824   1.000
    O282    O    0.40522   0.54076   0.31954   1.000
    O283    O    0.90522   0.54076   0.31954   1.000
    O284    O    0.35716   0.42413   0.31621   1.000
    O285    O    0.85716   0.42413   0.31621   1.000
    O286    O    0.29932   0.21853   0.79174   1.000
    O287    O    0.79932   0.21853   0.79174   1.000
    O288    O    0.40522   0.45924   0.68047   1.000
    O289    O    0.90522   0.45924   0.68047   1.000
    O290    O    0.35716   0.57587   0.68379   1.000
    O291    O    0.85716   0.57587   0.68379   1.000
    O292    O    0.29935   0.20823   0.21850   1.000
    O293    O    0.79935   0.20823   0.21850   1.000
    O294    O    0.40523   0.31955   0.45920   1.000
    O295    O    0.90523   0.31955   0.45920   1.000
    O296    O    0.35716   0.31625   0.57580   1.000
    O297    O    0.85716   0.31626   0.57580   1.000
    O298    O    0.29933   0.79179   0.78148   1.000
    O299    O    0.79933   0.79179   0.78148   1.000
    O300    O    0.40522   0.68046   0.54077   1.000
    O301    O    0.90522   0.68046   0.54077   1.000
    O302    O    0.35715   0.68376   0.42415   1.000
    O303    O    0.85715   0.68376   0.42415   1.000
    O304    O    0.00000   0.42678   0.40300   1.000
    O305    O    0.50000   0.42678   0.40300   1.000
    O306    O    1.00000   0.57322   0.59699   1.000
    O307    O    0.50000   0.57322   0.59699   1.000
    O308    O    1.00000   0.59700   0.42678   1.000
    O309    O    0.50000   0.59700   0.42678   1.000
    O310    O    0.00000   0.40301   0.57321   1.000
    O311    O    0.50000   0.40301   0.57321   1.000
    O312    O    0.25000   0.07323   0.90299   1.000
    O313    O    0.75000   0.07323   0.90299   1.000
    O314    O    0.25000   0.92678   0.09000   1.000
    O315    O    0.75000   0.92678   0.09000   1.000
    O316    O    0.25000   0.90302   0.92680   1.000
    O317    O    0.75000   0.90302   0.92680   1.000
    O318    O    0.25000   0.09699   0.07319   1.000
    O319    O    0.75000   0.09699   0.07319   1.000
loop_
    _geom_bond_atom_site_label_1
    _geom_bond_atom_site_label_2
    _geom_bond_distance
    _geom_bond_site_symmetry_2
    _ccdc_geom_bond_type
    C84    O227      1.27145      .   S
    C84    C82       1.49238      .   S
    C84    O100      1.28288  1_554   S
    C85    O228      1.27145      .   S
    C85    C83       1.49238      .   S
    C85    O101      1.28288  1_554   S
    C144   O277      1.27138      .   S
    C144   C142      1.49227      .   S
    C144   O279      1.28307  1_554   S
    C143   O276      1.27138      .   S
    C143   C141      1.49227      .   S
    C143   O278      1.28373  1_554   S
    C180   C141      1.40046      .   S
    C180   C83       1.40051      .   S
    C180   H43       1.08817  1_554   S
    C179   C142      1.40044      .   S
    C179   C82       1.40049  1_655   S
    C179   H42       1.08816  1_554   S
    H60    O318      0.99469      .   S
    H61    O319      0.99469      .   S
    C141   C139      1.39916      .   S
    C142   C140      1.39916      .   S
    C83    C81       1.40041      .   S
    C82    C80       1.40041      .   S
    H46    C185      1.08832  1_554   S
    H47    C186      1.08832  1_554   S
    O231   C91       1.28373  1_554   S
    O230   C90       1.28372  1_554   S
    O273   C138      1.28321  1_554   S
    O272   C137      1.28321  1_554   S
    O314   H52       1.00282      .   S
    O315   H53       1.00282      .   S
    C140   H23       1.08865      .   S
    C140   C177      1.39988      .   S
    C139   H22       1.08847      .   S
    C139   C178      1.39992      .   S
    C81    H5        1.08800      .   S
    C81    C178      1.39926      .   S
    C80    H4        1.08798      .   S
    C80    C177      1.39928  1_455   S
    C178   C182      1.49982      .   S
    C177   C181      1.49982      .   S
    H35    C172      1.08797  1_565   S
    H34    C171      1.08799  1_565   S
    O264   C131      1.27130      .   S
    O215   C72       1.27125      .   S
    O216   C73       1.27125      .   S
    O265   C132      1.27124      .   S
    O266   C131      1.28299  1_565   S
    O267   C132      1.28298  1_565   S
    O217   C72       1.28298  1_565   S
    O218   C73       1.28298  1_565   S
    C73    C67       1.49210      .   S
    C72    C66       1.49208      .   S
    C132   C130      1.49213      .   S
    C131   C129      1.49211      .   S
    C171   C130      1.40039  1_455   S
    C171   C66       1.40044      .   S
    C172   C129      1.40043      .   S
    C172   C67       1.40043      .   S
    C130   C128      1.40046      .   S
    C129   C127      1.40046      .   S
    C67    C65       1.40029      .   S
    C66    C64       1.40030      .   S
    O281   C200      1.27538      .   S
    O280   C199      1.27531      .   S
    O238   C199      1.27530      .   S
    O239   C200      1.27537      .   S
    O251   C212      1.27534      .   S
    O292   C211      1.27538      .   S
    O250   C211      1.27534      .   S
    O293   C212      1.27536      .   S
    C199   C195      1.50008      .   S
    C200   C196      1.49991      .   S
    C64    H0        1.08803      .   S
    C64    C169      1.39927      .   S
    C65    H1        1.08804      .   S
    C65    C170      1.39928      .   S
    C127   H18       1.08795      .   S
    C127   C170      1.39921      .   S
    C128   H19       1.08795      .   S
    C128   C169      1.39917  1_655   S
    C182   O226      1.27539      .   S
    C182   O274      1.27538      .   S
    C181   O275      1.27535      .   S
    C181   O225      1.27539  1_655   S
    C169   C173      1.49988      .   S
    C170   C174      1.49988      .   S
    C196   C146      1.39924      .   S
    C196   C99       1.39925      .   S
    C195   C145      1.39924      .   S
    C195   C98       1.39923      .   S
    C211   C207      1.49990      .   S
    C212   C208      1.49990      .   S
    H24    C145      1.08797      .   S
    H25    C146      1.08797      .   S
    H10    C98       1.08799      .   S
    H11    C99       1.08796      .   S
    C146   C148      1.40046      .   S
    C145   C147      1.40044      .   S
    C98    C105      1.40044      .   S
    C99    C106      1.40044      .   S
    C173   O213      1.27536      .   S
    C173   O263      1.27530  1_455   S
    C174   O214      1.27536      .   S
    C174   O262      1.27534      .   S
    C106   C198      1.40044      .   S
    C106   C108      1.49219      .   S
    C148   C198      1.40044      .   S
    C148   C150      1.49218      .   S
    C105   C197      1.40045      .   S
    C105   C107      1.49217      .   S
    C147   C197      1.40044      .   S
    C147   C149      1.49219      .   S
    C198   H55       1.08817      .   S
    C197   H54       1.08819      .   S
    C150   O285      1.28319      .   S
    C150   O283      1.27123      .   S
    C149   O284      1.28319      .   S
    C149   O282      1.27121      .   S
    C108   O243      1.28316      .   S
    C108   O241      1.27123      .   S
    C107   O242      1.28316      .   S
    C107   O240      1.27121      .   S
    C207   C157      1.39918      .   S
    C207   C115      1.39922      .   S
    C208   C116      1.39920      .   S
    C208   C158      1.39920      .   S
    H14    C115      1.08802      .   S
    H15    C116      1.08802      .   S
    H28    C157      1.08796      .   S
    H29    C158      1.08796      .   S
    C116   C118      1.40036      .   S
    C158   C160      1.40034      .   S
    C157   C159      1.40034      .   S
    C115   C117      1.40036      .   S
    H33    O305      0.99467      .   S
    H32    O304      0.99467      .   S
    O303   C168      1.28332      .   S
    O302   C167      1.28331      .   S
    O248   C113      1.28287      .   S
    O249   C114      1.28286      .   S
    O309   H41       0.99468      .   S
    O308   H40       0.99468      .   S
    H59    C204      1.08891      .   S
    H58    C203      1.08890      .   S
    C117   C209      1.40044      .   S
    C117   C119      1.49212      .   S
    C159   C209      1.40045      .   S
    C159   C161      1.49211      .   S
    C160   C210      1.40045      .   S
    C160   C162      1.49210      .   S
    C118   C210      1.40044      .   S
    C118   C120      1.49212      .   S
    O294   C161      1.27136      .   S
    O295   C162      1.27136      .   S
    O253   C120      1.27126      .   S
    O252   C119      1.27127      .   S
    C210   H63       1.08768      .   S
    C209   H62       1.08768      .   S
    C120   O255      1.28317      .   S
    C119   O254      1.28318      .   S
    C162   O297      1.28266      .   S
    C161   O296      1.28265      .   S
    C114   O247      1.27150      .   S
    C114   C112      1.49226      .   S
    C113   O246      1.27147      .   S
    C113   C111      1.49228      .   S
    C168   O301      1.27119      .   S
    C168   C166      1.49206      .   S
    C167   O300      1.27118      .   S
    C167   C165      1.49207      .   S
    C204   C166      1.40045      .   S
    C204   C112      1.40044      .   S
    C203   C165      1.40043      .   S
    C203   C111      1.40044      .   S
    H44    O310      0.99502      .   S
    H45    O311      0.99502      .   S
    C165   C163      1.40048      .   S
    C166   C164      1.40049      .   S
    C112   C110      1.40048      .   S
    C111   C109      1.40049      .   S
    O307   H37       0.99466      .   S
    O306   H36       0.99466      .   S
    C109   H12       1.08794      .   S
    C109   C201      1.39921      .   S
    C164   H31       1.08743      .   S
    C164   C202      1.39920      .   S
    C163   H30       1.08791      .   S
    C163   C201      1.39920      .   S
    C110   H13       1.08796      .   S
    C110   C202      1.39919      .   S
    C202   C206      1.49982      .   S
    C201   C205      1.49980      .   S
    H51    C192      1.08817      .   S
    H50    C191      1.08817      .   S
    O234   C96       1.27133      .   S
    O235   C97       1.27123      .   S
    O288   C155      1.27124      .   S
    O289   C156      1.27124      .   S
    O237   C97       1.28330      .   S
    O290   C155      1.28316      .   S
    O291   C156      1.28316      .   S
    O236   C96       1.28318      .   S
    C155   C153      1.49217      .   S
    C156   C154      1.49215      .   S
    C96    C94       1.49216      .   S
    C97    C95       1.49216      .   S
    C192   C154      1.40046      .   S
    C192   C95       1.40044      .   S
    C191   C94       1.40046      .   S
    C191   C153      1.40044      .   S
    C94    C92       1.40046      .   S
    C153   C151      1.40044      .   S
    C154   C152      1.40044      .   S
    C95    C93       1.40048      .   S
    O256   C176      1.27538      .   S
    O257   C71       1.27534      .   S
    O219   C71       1.27533  1_455   S
    O220   C176      1.27535      .   S
    O103   C188      1.27537      .   S
    O102   C187      1.27539      .   S
    O268   C188      1.27539      .   S
    O269   C187      1.27534  1_655   S
    C71    C175      1.49985      .   S
    C176   C68       1.49985      .   S
    C92    H8        1.08797      .   S
    C92    C189      1.39901      .   S
    C152   H27       1.08798      .   S
    C152   C190      1.39900      .   S
    C151   H26       1.08798      .   S
    C151   C189      1.39898      .   S
    C93    H9        1.08797      .   S
    C93    C190      1.39898      .   S
    C205   O298      1.27532      .   S
    C205   O244      1.27533      .   S
    C206   O245      1.27532      .   S
    C206   O299      1.27532      .   S
    C189   C193      1.50050      .   S
    C190   C194      1.50050      .   S
    C68    C121      1.39923      .   S
    C68    C75       1.39923      .   S
    C175   C122      1.39919      .   S
    C175   C74       1.39923  1_655   S
    C188   C184      1.49983      .   S
    C187   C183      1.49984      .   S
    H17    C122      1.08799      .   S
    H16    C121      1.08797      .   S
    H2     C74       1.08799      .   S
    H3     C75       1.08798      .   S
    C121   C123      1.40041      .   S
    C122   C124      1.40041      .   S
    C75    C77       1.40042      .   S
    C74    C76       1.40041      .   S
    C194   O287      1.27533      .   S
    C194   O233      1.27535      .   S
    C193   O232      1.27536      .   S
    C193   O286      1.27533      .   S
    C123   C70       1.40043      .   S
    C123   C125      1.49206      .   S
    C124   C69       1.40039      .   S
    C124   C126      1.49206      .   S
    C76    C69       1.40044  1_455   S
    C76    C78       1.49213      .   S
    C77    C70       1.40043      .   S
    C77    C79       1.49210      .   S
    C70    H39       1.08797  1_565   S
    C69    H38       1.08797  1_565   S
    C79    O224      1.28294  1_565   S
    C79    O222      1.27124      .   S
    C78    O223      1.28294  1_565   S
    C78    O221      1.27122      .   S
    C126   O261      1.28296  1_565   S
    C126   O259      1.27126      .   S
    C125   O260      1.28296  1_565   S
    C125   O258      1.27126      .   S
    C183   C134      1.39924  1_455   S
    C183   C86       1.39920      .   S
    C184   C133      1.39926      .   S
    C184   C87       1.39922      .   S
    H20    C133      1.08800      .   S
    H21    C134      1.08800      .   S
    H7     C87       1.08793      .   S
    H6     C86       1.08793      .   S
    C134   C136      1.40040      .   S
    C133   C135      1.40040      .   S
    C86    C88       1.40057      .   S
    C87    C89       1.40058      .   S
    H48    O312      0.99464      .   S
    H49    O313      0.99464      .   S
    O317   H57       0.99469      .   S
    O316   H56       0.99469      .   S
    C135   C186      1.40043      .   S
    C135   C137      1.49214      .   S
    C136   C185      1.40039  1_655   S
    C136   C138      1.49216      .   S
    C89    C186      1.40040      .   S
    C89    C91       1.49155      .   S
    C88    C185      1.40041      .   S
    C88    C90       1.49156      .   S
    O270   C137      1.27121      .   S
    O271   C138      1.27119      .   S
    O104   C90       1.27063      .   S
    O229   C91       1.27063      .   S
