# CIF file generated by openbabel 2.4.90, see http://openbabel.sf.net
data_I
_chemical_name_common ''
_cell_length_a 12.16
_cell_length_b 12.162
_cell_length_c 12.711
_cell_angle_alpha 102.47
_cell_angle_beta 102.441
_cell_angle_gamma 103.409
_space_group_name_H-M_alt 'P 1'
_space_group_name_Hall 'P 1'
loop_
    _symmetry_equiv_pos_as_xyz
    x,y,z
loop_
    _atom_site_label
    _atom_site_type_symbol
    _atom_site_fract_x
    _atom_site_fract_y
    _atom_site_fract_z
    _atom_site_occupancy
    Zr0     Zr   0.79560   0.20458   0.75023   1.000
    Zr1     Zr   0.20443   0.79546   0.24971   1.000
    Zr2     Zr   0.82283   0.42676   0.04868   1.000
    Zr3     Zr   0.57342   0.17775   0.45262   1.000
    Zr4     Zr   0.17721   0.57328   0.95127   1.000
    Zr5     Zr   0.42662   0.82230   0.54733   1.000
    N6      N    0.83287   0.78384   0.81682   1.000
    N7      N    0.99857   0.50002   0.49997   1.000
    N8      N    0.21621   0.16673   0.68181   1.000
    N9      N    0.50001   0.99850   0.99997   1.000
    N10     N    0.78382   0.83331   0.31812   1.000
    N11     N    0.16717   0.21621   0.18213   1.000
    C12     C    0.69785   0.04278   0.46101   1.000
    O13     O    0.72685   0.97190   0.41318   1.000
    O14     O    0.74315   0.09513   0.55100   1.000
    O15     O    0.64275   0.07102   0.44512   1.000
    C16     C    0.63152   0.87529   0.67150   1.000
    O17     O    0.69948   0.84474   0.72063   1.000
    O18     O    0.56422   0.83944   0.62718   1.000
    O19     O    0.68231   0.98249   0.69992   1.000
    C20     C    0.52498   0.16943   0.62329   1.000
    O21     O    0.59999   0.17932   0.65235   1.000
    O22     O    0.54445   0.17261   0.57795   1.000
    C23     C    0.36852   0.12476   0.32845   1.000
    O24     O    0.31773   0.01756   0.30002   1.000
    O25     O    0.30055   0.15531   0.27907   1.000
    O26     O    0.43582   0.16061   0.37277   1.000
    C27     C    0.30219   0.95727   0.53893   1.000
    O28     O    0.27318   0.02815   0.58675   1.000
    O29     O    0.35729   0.92903   0.55482   1.000
    O30     O    0.25688   0.90492   0.44894   1.000
    C31     C    0.24265   0.66235   0.46844   1.000
    O32     O    0.16051   0.60746   0.47888   1.000
    O33     O    0.22783   0.68976   0.38990   1.000
    O34     O    0.30135   0.71332   0.51143   1.000
    C35     C    0.16950   0.52483   0.12221   1.000
    O36     O    0.17930   0.59983   0.15138   1.000
    O37     O    0.17249   0.54428   0.07677   1.000
    C38     C    0.87528   0.63158   0.17227   1.000
    O39     O    0.84474   0.69969   0.22149   1.000
    O40     O    0.98245   0.68236   0.20028   1.000
    O41     O    0.83956   0.56424   0.12821   1.000
    C42     C    0.75739   0.33769   0.53150   1.000
    O43     O    0.83880   0.39258   0.52106   1.000
    O44     O    0.69869   0.28673   0.48851   1.000
    O45     O    0.77220   0.31028   0.61004   1.000
    C46     C    0.33719   0.75730   0.03069   1.000
    O47     O    0.39225   0.83872   0.02052   1.000
    O48     O    0.28620   0.69866   0.98755   1.000
    O49     O    0.30988   0.77203   0.10930   1.000
    C50     C    0.83053   0.47521   0.87774   1.000
    O51     O    0.82074   0.40021   0.84856   1.000
    O52     O    0.82755   0.45576   0.92317   1.000
    C53     C    0.04233   0.69816   0.96092   1.000
    O54     O    0.97145   0.72707   0.91278   1.000
    O55     O    0.09475   0.74338   0.05078   1.000
    O56     O    0.07054   0.64293   0.94475   1.000
    C57     C    0.66284   0.24274   0.96925   1.000
    O58     O    0.71383   0.30138   0.01239   1.000
    O59     O    0.60778   0.16056   0.97942   1.000
    O60     O    0.69015   0.22800   0.89064   1.000
    C61     C    0.12475   0.36846   0.82767   1.000
    O62     O    0.01759   0.31767   0.79966   1.000
    O63     O    0.16047   0.43580   0.87174   1.000
    O64     O    0.15530   0.30035   0.77845   1.000
    C65     C    0.47506   0.83062   0.37665   1.000
    O66     O    0.40005   0.82073   0.34759   1.000
    O67     O    0.45559   0.82744   0.42200   1.000
    C68     C    0.95771   0.30188   0.03902   1.000
    O69     O    0.90528   0.25666   0.94916   1.000
    O70     O    0.92949   0.35711   0.05519   1.000
    O71     O    0.02859   0.27297   0.08692   1.000
loop_
    _geom_bond_atom_site_label_1
    _geom_bond_atom_site_label_2
    _geom_bond_distance
    _geom_bond_site_symmetry_2
    _ccdc_geom_bond_type
    C12    O13       1.11545  1_545   S
    N10    O13       2.19165      .   S
    C12    O14       1.12632      .   S
    Zr0    O14       2.45894      .   S
    C12    O15       0.82822      .   S
    Zr3    O15       1.70109      .   S
    C16    O17       1.10960      .   S
    N6     O17       2.18359      .   S
    C16    O18       0.84083      .   S
    Zr5    O18       1.69949      .   S
    C16    O19       1.24049      .   S
    Zr0    O19       2.59830  1_545   S
    C20    O21       0.87621      .   S
    Zr0    O21       2.34971      .   S
    C20    O22       0.67375      .   S
    Zr3    O22       1.71478      .   S
    C23    O24       1.24051      .   S
    Zr1    O24       2.59834  1_565   S
    C23    O25       1.11111      .   S
    N11    O25       2.18808      .   S
    C23    O26       0.84084      .   S
    Zr3    O26       1.69951      .   S
    C27    O28       1.11544  1_565   S
    N8     O28       2.19163      .   S
    C27    O29       0.82821      .   S
    Zr5    O29       1.70106      .   S
    C27    O30       1.12633      .   S
    Zr1    O30       2.45895      .   S
    C31    O32       1.11668      .   S
    N7     O32       2.20053  1_655   S
    C31    O33       1.11103      .   S
    Zr1    O33       2.41858      .   S
    C31    O34       0.82021      .   S
    Zr5    O34       1.66984      .   S
    C35    O36       0.87648      .   S
    Zr1    O36       2.35170      .   S
    C35    O37       0.67443      .   S
    Zr4    O37       1.71626  1_556   S
    C38    O39       1.11104      .   S
    N10    O39       2.18787      .   S
    C38    O40       1.24029      .   S
    Zr1    O40       2.59754  1_455   S
    C38    O41       0.83982      .   S
    Zr2    O41       1.69783      .   S
    C42    O43       1.10981      .   S
    N7     O43       2.17990      .   S
    C42    O44       0.82017      .   S
    Zr3    O44       1.66978      .   S
    C42    O45       1.11104      .   S
    Zr0    O45       2.41856      .   S
    C46    O47       1.10930      .   S
    N9     O47       2.17889  1_556   S
    C46    O48       0.82060  1_554   S
    Zr4    O48       1.67030      .   S
    C46    O49       1.11094      .   S
    Zr1    O49       2.41796      .   S
    C50    O51       0.87649      .   S
    Zr0    O51       2.35172      .   S
    C50    O52       0.67447      .   S
    Zr2    O52       1.71630  1_554   S
    C53    O54       1.11679  1_455   S
    N6     O54       2.19587      .   S
    C53    O55       1.12510  1_556   S
    Zr1    O55       2.45705      .   S
    C53    O56       0.82992      .   S
    Zr4    O56       1.70304      .   S
    C57    O58       0.82062  1_556   S
    Zr2    O58       1.67032      .   S
    C57    O59       1.11647      .   S
    N9     O59       2.20045  1_565   S
    C57    O60       1.11094      .   S
    Zr0    O60       2.41799      .   S
    C61    O62       1.24027      .   S
    Zr0    O62       2.59749  1_655   S
    C61    O63       0.83984      .   S
    Zr4    O63       1.69784      .   S
    C61    O64       1.11104      .   S
    N8     O64       2.18787      .   S
    C65    O66       0.87621      .   S
    Zr1    O66       2.34974      .   S
    C65    O67       0.67376      .   S
    Zr5    O67       1.71479      .   S
    C68    O69       1.12510  1_554   S
    Zr0    O69       2.45706      .   S
    C68    O70       0.82992      .   S
    Zr2    O70       1.70304      .   S
    C68    O71       1.11537  1_655   S
    N11    O71       2.19154      .   S
