# CIF file generated by openbabel 2.4.90, see http://openbabel.sf.net
data_I
_chemical_name_common ''
_cell_length_a 14.132
_cell_length_b 18.093
_cell_length_c 19.553
_cell_angle_alpha 98.827
_cell_angle_beta 90.064
_cell_angle_gamma 90.027
_space_group_name_H-M_alt 'P 1'
_space_group_name_Hall 'P 1'
loop_
    _symmetry_equiv_pos_as_xyz
    x,y,z
loop_
    _atom_site_label
    _atom_site_type_symbol
    _atom_site_fract_x
    _atom_site_fract_y
    _atom_site_fract_z
    _atom_site_occupancy
    Zr0     Zr   0.20884   0.81634   0.53697   1.000
    Zr1     Zr   0.19300   0.66485   0.35020   1.000
    Zr2     Zr   0.12604   0.47632   0.98006   1.000
    Zr3     Zr   0.26448   0.60045   0.16113   1.000
    Zr4     Zr   0.20845   0.18357   0.96324   1.000
    Zr5     Zr   0.19312   0.33511   0.14973   1.000
    Zr6     Zr   0.12623   0.52380   0.51994   1.000
    Zr7     Zr   0.26419   0.39954   0.33889   1.000
    Zr8     Zr   0.79114   0.18364   0.46290   1.000
    Zr9     Zr   0.80702   0.33510   0.64965   1.000
    Zr10    Zr   0.87399   0.52373   0.02000   1.000
    Zr11    Zr   0.73556   0.39960   0.83886   1.000
    Zr12    Zr   0.79158   0.81645   0.03671   1.000
    Zr13    Zr   0.80696   0.66488   0.85020   1.000
    Zr14    Zr   0.87380   0.47630   0.48010   1.000
    Zr15    Zr   0.73578   0.60052   0.66114   1.000
    N16     N    0.22765   0.89059   0.05965   1.000
    O17     O    0.23884   0.77476   0.10097   1.000
    O18     O    0.22200   0.00713   0.01936   1.000
    N19     N    0.00665   0.72210   0.81121   1.000
    O20     O    0.08010   0.75225   0.69212   1.000
    O21     O    0.91836   0.68355   0.80331   1.000
    O22     O    0.90056   0.66745   0.75605   1.000
    O23     O    0.91705   0.72007   0.84832   1.000
    O24     O    0.91321   0.75796   0.89494   1.000
    O25     O    0.94430   0.64371   0.89532   1.000
    O26     O    0.92754   0.67900   0.85287   1.000
    O27     O    0.09053   0.78237   0.70009   1.000
    O28     O    0.03984   0.62463   0.89843   1.000
    O29     O    0.97683   0.63648   0.90842   1.000
    N30     N    0.77237   0.10894   0.94031   1.000
    O31     O    0.76119   0.22503   0.89902   1.000
    O32     O    0.77803   0.99264   0.98059   1.000
    N33     N    0.77261   0.89066   0.55957   1.000
    O34     O    0.77804   0.00719   0.51918   1.000
    O35     O    0.76145   0.77485   0.60094   1.000
    N36     N    0.43966   0.40818   0.42821   1.000
    O37     O    0.35482   0.43618   0.38273   1.000
    O38     O    0.37864   0.39072   0.36473   1.000
    O39     O    0.39168   0.41562   0.39601   1.000
    O40     O    0.34820   0.52878   0.40255   1.000
    O41     O    0.31095   0.44890   0.45748   1.000
    O42     O    0.34544   0.41784   0.41221   1.000
    O43     O    0.58830   0.31730   0.43952   1.000
    O44     O    0.31518   0.45309   0.48590   1.000
    N45     N    0.43984   0.59182   0.07177   1.000
    O46     O    0.31101   0.55117   0.04250   1.000
    O47     O    0.34562   0.58220   0.08777   1.000
    O48     O    0.39190   0.58439   0.10399   1.000
    O49     O    0.31520   0.54693   0.01408   1.000
    O50     O    0.58862   0.68275   0.06036   1.000
    O51     O    0.35501   0.56382   0.11722   1.000
    O52     O    0.37895   0.60928   0.13526   1.000
    O53     O    0.34830   0.47122   0.09739   1.000
    N54     N    0.99324   0.72205   0.31097   1.000
    O55     O    0.90953   0.78238   0.19991   1.000
    O56     O    0.05572   0.64367   0.39514   1.000
    O57     O    0.07241   0.67893   0.35271   1.000
    O58     O    0.08285   0.71995   0.34830   1.000
    O59     O    0.08682   0.75782   0.39500   1.000
    O60     O    0.96009   0.62458   0.39825   1.000
    O61     O    0.02319   0.63645   0.40821   1.000
    O62     O    0.08163   0.68351   0.30314   1.000
    O63     O    0.09950   0.66740   0.25587   1.000
    N64     N    0.56034   0.59184   0.57174   1.000
    O65     O    0.65181   0.47123   0.59737   1.000
    O66     O    0.41169   0.68271   0.56041   1.000
    O67     O    0.68908   0.55120   0.54251   1.000
    O68     O    0.65457   0.58225   0.58777   1.000
    O69     O    0.64518   0.56386   0.61724   1.000
    O70     O    0.62133   0.60931   0.63525   1.000
    O71     O    0.68483   0.54695   0.51409   1.000
    O72     O    0.60832   0.58442   0.60396   1.000
    N73     N    0.99287   0.27789   0.18876   1.000
    O74     O    0.95994   0.37538   0.10157   1.000
    O75     O    0.02295   0.36353   0.09158   1.000
    O76     O    0.08143   0.31644   0.19665   1.000
    O77     O    0.09920   0.33255   0.24394   1.000
    O78     O    0.08274   0.27992   0.15164   1.000
    O79     O    0.08657   0.24204   0.10502   1.000
    O80     O    0.91966   0.24773   0.30783   1.000
    O81     O    0.90922   0.21761   0.29985   1.000
    O82     O    0.05548   0.35630   0.10467   1.000
    O83     O    0.07225   0.32099   0.14709   1.000
    N84     N    0.56018   0.40822   0.92798   1.000
    O85     O    0.41141   0.31728   0.93949   1.000
    O86     O    0.64501   0.43622   0.88263   1.000
    O87     O    0.60812   0.41566   0.89588   1.000
    O88     O    0.68900   0.44891   0.95739   1.000
    O89     O    0.65439   0.41788   0.91210   1.000
    O90     O    0.62108   0.39076   0.86462   1.000
    O91     O    0.68483   0.45311   0.98581   1.000
    O92     O    0.65173   0.52881   0.90245   1.000
    N93     N    0.00626   0.27792   0.68878   1.000
    O94     O    0.91691   0.28001   0.65151   1.000
    O95     O    0.91294   0.24215   0.60482   1.000
    O96     O    0.94405   0.35635   0.60473   1.000
    O97     O    0.92735   0.32105   0.64712   1.000
    O98     O    0.09024   0.21761   0.79994   1.000
    O99     O    0.03969   0.37544   0.60163   1.000
    O100    O    0.97658   0.36357   0.59167   1.000
    O101    O    0.91812   0.31647   0.69668   1.000
    O102    O    0.90026   0.33260   0.74398   1.000
    N103    N    0.22738   0.10883   0.44038   1.000
    O104    O    0.22195   0.99254   0.48074   1.000
    O105    O    0.23854   0.22492   0.39905   1.000
loop_
    _geom_bond_atom_site_label_1
    _geom_bond_atom_site_label_2
    _geom_bond_distance
    _geom_bond_site_symmetry_2
    _ccdc_geom_bond_type
    N16    O17       2.36406      .   S
    Zr3    O17       3.54970      .   S
    N16    O18       2.36285  1_565   S
    Zr4    O18       3.53654  1_556   S
    N19    O20       2.68193      .   S
    Zr0    O20       3.86611      .   S
    N19    O21       1.42580  1_455   S
    Zr13   O21       1.87901      .   S
    N19    O22       2.01401  1_455   S
    Zr15   O22       3.10339      .   S
    N19    O23       1.46323  1_455   S
    Zr13   O23       1.85178      .   S
    N19    O24       2.12716  1_455   S
    Zr12   O24       3.29698  1_554   S
    N19    O25       2.49206  1_455   S
    Zr10   O25       3.64277  1_554   S
    N19    O26       1.64852  1_455   S
    Zr13   O26       1.72250      .   S
    N19    O27       2.83670      .   S
    Zr0    O27       3.73614      .   S
    N19    O28       2.67590      .   S
    Zr2    O28       3.54180      .   S
    N19    O29       2.66356  1_455   S
    Zr10   O29       3.52184  1_554   S
    N30    O31       2.36840      .   S
    Zr11   O31       3.55417      .   S
    N30    O32       2.35857  1_545   S
    Zr12   O32       3.53223  1_554   S
    N33    O34       2.36339  1_565   S
    Zr8    O34       3.53776      .   S
    N33    O35       2.36434      .   S
    Zr15   O35       3.55045      .   S
    N36    O37       1.61897      .   S
    Zr7    O37       1.62393      .   S
    N36    O38       1.50363      .   S
    Zr7    O38       1.70881      .   S
    N36    O39       0.94832      .   S
    Zr7    O39       2.11505      .   S
    N36    O40       2.64951      .   S
    Zr1    O40       3.56285      .   S
    N36    O41       2.01315      .   S
    Zr6    O41       3.10574      .   S
    N36    O42       1.38460      .   S
    Zr7    O42       1.82593      .   S
    N36    O43       2.69803      .   S
    Zr8    O43       3.82316      .   S
    N36    O44       2.17994      .   S
    Zr6    O44       2.99257      .   S
    N45    O46       2.01264      .   S
    Zr2    O46       3.10474  1_556   S
    N45    O47       1.38516      .   S
    Zr3    O47       1.82756      .   S
    N45    O48       0.94906      .   S
    Zr3    O48       2.11677      .   S
    N45    O49       2.17906      .   S
    Zr2    O49       2.99197  1_556   S
    N45    O50       2.69948      .   S
    Zr12   O50       3.82519      .   S
    N45    O51       1.61969      .   S
    Zr3    O51       1.62536      .   S
    N45    O52       1.50449      .   S
    Zr3    O52       1.71011      .   S
    N45    O53       2.64951      .   S
    Zr5    O53       3.56305      .   S
    N54    O55       2.83362      .   S
    Zr12   O55       3.73276      .   S
    N54    O56       2.49286  1_655   S
    Zr6    O56       3.64301      .   S
    N54    O57       1.64952  1_655   S
    Zr1    O57       1.72277      .   S
    N54    O58       1.46450  1_655   S
    Zr1    O58       1.85219      .   S
    N54    O59       2.12959  1_655   S
    Zr0    O59       3.29945      .   S
    N54    O60       2.67713      .   S
    Zr14   O60       3.54466      .   S
    N54    O61       2.66376  1_655   S
    Zr6    O61       3.52276      .   S
    N54    O62       1.42780  1_655   S
    Zr1    O62       1.87887      .   S
    N54    O63       2.01775  1_655   S
    Zr3    O63       3.10786      .   S
    N64    O65       2.64975      .   S
    Zr9    O65       3.56312      .   S
    N64    O66       2.69798      .   S
    Zr0    O66       3.82317      .   S
    N64    O67       2.01294      .   S
    Zr14   O67       3.10534      .   S
    N64    O68       1.38484      .   S
    Zr15   O68       1.82622      .   S
    N64    O69       1.61921      .   S
    Zr15   O69       1.62425      .   S
    N64    O70       1.50394      .   S
    Zr15   O70       1.70905      .   S
    N64    O71       2.17957      .   S
    Zr14   O71       2.99223      .   S
    N64    O72       0.94860      .   S
    Zr15   O72       2.11539      .   S
    N73    O74       2.67521      .   S
    Zr10   O74       3.54054      .   S
    N73    O75       2.66399  1_655   S
    Zr2    O75       3.52310  1_556   S
    N73    O76       1.42920  1_655   S
    Zr5    O76       1.88267      .   S
    N73    O77       2.01688  1_655   S
    Zr7    O77       3.10629      .   S
    N73    O78       1.46665  1_655   S
    Zr5    O78       1.85523      .   S
    N73    O79       2.12950  1_655   S
    Zr4    O79       3.29899  1_556   S
    N73    O80       2.68024      .   S
    Zr8    O80       3.86341      .   S
    N73    O81       2.83485      .   S
    Zr8    O81       3.73355      .   S
    N73    O82       2.49325  1_655   S
    Zr2    O82       3.64344  1_556   S
    N73    O83       1.65122  1_655   S
    Zr5    O83       1.72653      .   S
    N84    O85       2.69989      .   S
    Zr4    O85       3.82568      .   S
    N84    O86       1.61859      .   S
    Zr11   O86       1.62424      .   S
    N84    O87       0.94757      .   S
    Zr11   O87       2.11579      .   S
    N84    O88       2.01334      .   S
    Zr10   O88       3.10597  1_554   S
    N84    O89       1.38457      .   S
    Zr11   O89       1.82612      .   S
    N84    O90       1.50267      .   S
    Zr11   O90       1.70964      .   S
    N84    O91       2.18041      .   S
    Zr10   O91       2.99270  1_554   S
    N84    O92       2.64881      .   S
    Zr13   O92       3.56222      .   S
    N93    O94       1.46066  1_455   S
    Zr9    O94       1.84904      .   S
    N93    O95       2.12645  1_455   S
    Zr8    O95       3.29695      .   S
    N93    O96       2.49031  1_455   S
    Zr14   O96       3.64055      .   S
    N93    O97       1.64629  1_455   S
    Zr9    O97       1.71912      .   S
    N93    O98       2.83664      .   S
    Zr4    O98       3.73598      .   S
    N93    O99       2.67655      .   S
    Zr6    O99       3.54533      .   S
    N93    O100      2.66169  1_455   S
    Zr14   O100      3.52004      .   S
    N93    O101      1.42482  1_455   S
    Zr9    O101      1.87525      .   S
    N93    O102      2.01622  1_455   S
    Zr11   O102      3.10653      .   S
    N103   O104      2.35902  1_545   S
    Zr0    O104      3.53311      .   S
    N103   O105      2.36865      .   S
    Zr7    O105      3.55484      .   S
