# CIF file generated by openbabel 2.4.90, see http://openbabel.sf.net
data_I
_chemical_name_common ''
_cell_length_a 16.341
_cell_length_b 18.078
_cell_length_c 18.066
_cell_angle_alpha 68.745
_cell_angle_beta 72.547
_cell_angle_gamma 107.43
_space_group_name_H-M_alt 'P 1'
_space_group_name_Hall 'P 1'
loop_
    _symmetry_equiv_pos_as_xyz
    x,y,z
loop_
    _atom_site_label
    _atom_site_type_symbol
    _atom_site_fract_x
    _atom_site_fract_y
    _atom_site_fract_z
    _atom_site_occupancy
    Zr0     Zr   0.00001   0.00003   0.49999   1.000
    Zr1     Zr   0.50000   0.50005   0.49998   1.000
    Zr2     Zr   1.00000   0.50003   0.00000   1.000
    Zr3     Zr   1.00000   0.50004   0.49999   1.000
    Zr4     Zr   0.50000   0.00003   0.49999   1.000
    Zr5     Zr   0.50001   0.50004   0.99999   1.000
    N6      N    0.40642   0.85139   0.74034   1.000
    O7      O    0.44589   0.90226   0.64900   1.000
    O8      O    0.43111   0.93188   0.64004   1.000
    O9      O    0.44656   0.69707   0.84886   1.000
    N10     N    0.14705   0.74037   0.40835   1.000
    O11     O    0.09488   0.64900   0.44899   1.000
    O12     O    0.07139   0.64010   0.42810   1.000
    O13     O    0.29558   0.84890   0.45414   1.000
    N14     N    0.05617   0.14942   0.59134   1.000
    O15     O    0.25013   0.30344   0.54564   1.000
    O16     O    0.04435   0.09826   0.55095   1.000
    O17     O    0.00006   0.06880   0.57167   1.000
    N18     N    0.94385   0.85066   0.40843   1.000
    O19     O    0.95566   0.90181   0.44893   1.000
    O20     O    0.74987   0.69665   0.45423   1.000
    O21     O    0.99995   0.93128   0.42821   1.000
    N22     N    0.09353   0.74017   0.85136   1.000
    O23     O    0.06880   0.63993   0.93190   1.000
    O24     O    0.05345   0.84878   0.69698   1.000
    O25     O    0.05412   0.64892   0.90219   1.000
    N26     N    0.35331   0.40848   0.74036   1.000
    O27     O    0.40531   0.44903   0.64900   1.000
    O28     O    0.20461   0.45421   0.84892   1.000
    O29     O    0.42892   0.42827   0.64003   1.000
    N30     N    0.85281   0.25970   0.59164   1.000
    O31     O    0.70435   0.15117   0.54585   1.000
    O32     O    0.90504   0.35108   0.55100   1.000
    O33     O    0.92854   0.35998   0.57189   1.000
    N34     N    0.59358   0.14868   0.25965   1.000
    O35     O    0.55410   0.09781   0.35099   1.000
    O36     O    0.55344   0.30301   0.15112   1.000
    O37     O    0.56888   0.06819   0.35995   1.000
    N38     N    0.44416   0.59138   0.14940   1.000
    O39     O    0.45590   0.55100   0.09827   1.000
    O40     O    0.25007   0.54564   0.30348   1.000
    O41     O    0.50015   0.57166   0.06872   1.000
    N42     N    0.90646   0.25989   0.14846   1.000
    O43     O    0.94587   0.35114   0.09772   1.000
    O44     O    0.94655   0.15128   0.30292   1.000
    O45     O    0.93119   0.36013   0.06801   1.000
    N46     N    0.55585   0.40869   0.85055   1.000
    O47     O    0.49986   0.42842   0.93123   1.000
    O48     O    0.74994   0.45443   0.69647   1.000
    O49     O    0.54411   0.44907   0.90170   1.000
    N50     N    0.64667   0.59160   0.25962   1.000
    O51     O    0.79538   0.54586   0.15108   1.000
    O52     O    0.57107   0.57183   0.35995   1.000
    O53     O    0.59468   0.55106   0.35097   1.000
loop_
    _geom_bond_atom_site_label_1
    _geom_bond_atom_site_label_2
    _geom_bond_distance
    _geom_bond_site_symmetry_2
    _ccdc_geom_bond_type
    N6     O7        1.37499      .   S
    Zr4    O7        2.31061  1_545   S
    N6     O8        1.69156      .   S
    Zr4    O8        2.09456  1_545   S
    N6     O9        3.15589      .   S
    Zr5    O9        4.14083      .   S
    N10    O11       1.37700      .   S
    Zr3    O11       2.31236  1_655   S
    N10    O12       1.69285      .   S
    Zr3    O12       2.09667  1_655   S
    N10    O13       3.15481      .   S
    Zr4    O13       4.14028  1_545   S
    N14    O15       3.15556      .   S
    Zr1    O15       4.14062      .   S
    N14    O16       1.37538      .   S
    Zr0    O16       2.31110      .   S
    N14    O17       1.69165      .   S
    Zr0    O17       2.09510      .   S
    N18    O19       1.37681      .   S
    Zr0    O19       2.31234  1_445   S
    N18    O20       3.15486      .   S
    Zr1    O20       4.13991      .   S
    N18    O21       1.69286      .   S
    Zr0    O21       2.09643  1_445   S
    N22    O23       1.69146      .   S
    Zr2    O23       2.09401  1_654   S
    N22    O24       3.15564      .   S
    Zr0    O24       4.14054  1_545   S
    N22    O25       1.37472      .   S
    Zr2    O25       2.31026  1_654   S
    N26    O27       1.37547      .   S
    Zr1    O27       2.31058      .   S
    N26    O28       3.15512      .   S
    Zr2    O28       4.14002  1_654   S
    N26    O29       1.69176      .   S
    Zr1    O29       2.09477      .   S
    N30    O31       3.15418      .   S
    Zr4    O31       4.13972      .   S
    N30    O32       1.37716      .   S
    Zr3    O32       2.31269      .   S
    N30    O33       1.69334      .   S
    Zr3    O33       2.09675      .   S
    N34    O35       1.37498      .   S
    Zr4    O35       2.31055      .   S
    N34    O36       3.15594      .   S
    Zr5    O36       4.14086  1_556   S
    N34    O37       1.69155      .   S
    Zr4    O37       2.09448      .   S
    N38    O39       1.37459      .   S
    Zr5    O39       2.30997  1_556   S
    N38    O40       3.15533      .   S
    Zr3    O40       4.13999  1_655   S
    N38    O41       1.69134      .   S
    Zr5    O41       2.09363  1_556   S
    N42    O43       1.37460      .   S
    Zr2    O43       2.30995      .   S
    N42    O44       3.15680      .   S
    Zr0    O44       4.14165  1_455   S
    N42    O45       1.69081      .   S
    Zr2    O45       2.09412      .   S
    N46    O47       1.69153      .   S
    Zr5    O47       2.09430      .   S
    N46    O48       3.15521      .   S
    Zr3    O48       4.13959      .   S
    N46    O49       1.37495      .   S
    Zr5    O49       2.31046      .   S
    N50    O51       3.15519      .   S
    Zr2    O51       4.14016      .   S
    N50    O52       1.69158      .   S
    Zr1    O52       2.09459      .   S
    N50    O53       1.37526      .   S
    Zr1    O53       2.31043      .   S
