# CIF file generated by openbabel 2.4.90, see http://openbabel.sf.net
data_I
_chemical_name_common ''
_cell_length_a 15.976
_cell_length_b 19.736
_cell_length_c 13.545
_cell_angle_alpha 109.661
_cell_angle_beta 105.44
_cell_angle_gamma 94.817
_space_group_name_H-M_alt 'P 1'
_space_group_name_Hall 'P 1'
loop_
    _symmetry_equiv_pos_as_xyz
    x,y,z
loop_
    _atom_site_label
    _atom_site_type_symbol
    _atom_site_fract_x
    _atom_site_fract_y
    _atom_site_fract_z
    _atom_site_occupancy
    Zr0     Zr   0.19023   0.06458   0.75938   1.000
    Zr1     Zr   0.19028   0.56433   0.75929   1.000
    Zr2     Zr   0.69023   0.06458   0.75938   1.000
    Zr3     Zr   0.69027   0.56434   0.75929   1.000
    Zr4     Zr   0.30974   0.43564   0.24075   1.000
    Zr5     Zr   0.30978   0.93540   0.24067   1.000
    Zr6     Zr   0.80973   0.43565   0.24075   1.000
    Zr7     Zr   0.80977   0.93540   0.24066   1.000
    Zr8     Zr   0.99985   0.24990   0.49980   1.000
    Zr9     Zr   0.00015   0.75008   0.50026   1.000
    Zr10    Zr   0.49984   0.24990   0.49981   1.000
    Zr11    Zr   0.50015   0.75009   0.50020   1.000
    Zr12    Zr   0.24980   0.24982   0.49963   1.000
    Zr13    Zr   0.25018   0.75016   0.50040   1.000
    Zr14    Zr   0.74979   0.24982   0.49963   1.000
    Zr15    Zr   0.75017   0.75015   0.50041   1.000
    N16     N    0.50000   0.50000   0.99994   1.000
    N17     N    0.00005   0.25009   0.99985   1.000
    N18     N    0.49996   0.74991   0.00017   1.000
    N19     N    0.99996   0.74991   0.00016   1.000
    N20     N    0.50004   0.25008   0.99984   1.000
    N21     N    1.00000   0.99899   0.99996   1.000
    N22     N    0.50000   0.99899   0.00002   1.000
    N23     N    1.00000   0.50000   0.00001   1.000
    C24     C    0.30838   0.14001   0.83803   1.000
    O25     O    0.37319   0.17742   0.89247   1.000
    C26     C    0.69162   0.85998   0.16199   1.000
    O27     O    0.62681   0.82257   0.10754   1.000
    C28     C    0.86139   0.84975   0.39752   1.000
    O29     O    0.82537   0.81588   0.43656   1.000
    O30     O    0.90892   0.81509   0.43425   1.000
    O31     O    0.84653   0.87937   0.34803   1.000
    C32     C    0.86114   0.34967   0.39723   1.000
    O33     O    0.82505   0.31569   0.43607   1.000
    O34     O    0.84635   0.37940   0.34788   1.000
    O35     O    0.90864   0.31498   0.43391   1.000
    C36     C    0.66323   0.90065   0.60380   1.000
    O37     O    0.60755   0.84744   0.56457   1.000
    O38     O    0.69224   0.84780   0.56689   1.000
    O39     O    0.67320   0.95493   0.65298   1.000
    C40     C    0.36115   0.34967   0.39724   1.000
    O41     O    0.40865   0.31498   0.43392   1.000
    O42     O    0.34636   0.37940   0.34788   1.000
    O43     O    0.32507   0.31569   0.43607   1.000
    C44     C    0.83675   0.09933   0.39624   1.000
    O45     O    0.89244   0.15255   0.43546   1.000
    O46     O    0.82679   0.04505   0.34706   1.000
    O47     O    0.80774   0.15217   0.43315   1.000
    C48     C    0.69173   0.36011   0.16171   1.000
    O49     O    0.62691   0.32273   0.10724   1.000
    C50     C    0.80826   0.63988   0.83829   1.000
    O51     O    0.87308   0.67727   0.89276   1.000
    C52     C    0.13885   0.65031   0.60281   1.000
    O53     O    0.17493   0.68429   0.56397   1.000
    O54     O    0.15365   0.62058   0.65216   1.000
    O55     O    0.09135   0.68500   0.56614   1.000
    C56     C    0.36140   0.84975   0.39754   1.000
    O57     O    0.34655   0.87938   0.34805   1.000
    O58     O    0.40892   0.81510   0.43425   1.000
    O59     O    0.32538   0.81588   0.43657   1.000
    C60     C    0.88995   0.47123   0.16268   1.000
    O61     O    0.92730   0.48127   0.10795   1.000
    C62     C    0.13859   0.15023   0.60242   1.000
    O63     O    0.09107   0.18489   0.56575   1.000
    O64     O    0.17461   0.18410   0.56343   1.000
    O65     O    0.15346   0.12061   0.65181   1.000
    C66     C    0.33676   0.09934   0.39624   1.000
    O67     O    0.30775   0.15218   0.43315   1.000
    O68     O    0.39244   0.15255   0.43547   1.000
    O69     O    0.32680   0.04505   0.34706   1.000
    C70     C    0.63859   0.15023   0.60251   1.000
    O71     O    0.59107   0.18489   0.56579   1.000
    O72     O    0.65345   0.12061   0.65200   1.000
    O73     O    0.67460   0.18410   0.56347   1.000
    C74     C    0.19174   0.36011   0.16171   1.000
    O75     O    0.12692   0.32273   0.10724   1.000
    C76     C    0.33698   0.59959   0.39661   1.000
    O77     O    0.30804   0.65245   0.43368   1.000
    O78     O    0.39270   0.65277   0.43584   1.000
    O79     O    0.32693   0.54530   0.34734   1.000
    C80     C    0.16324   0.90065   0.60380   1.000
    O81     O    0.19225   0.84781   0.56688   1.000
    O82     O    0.17320   0.95493   0.65298   1.000
    O83     O    0.10755   0.84744   0.56458   1.000
    C84     C    0.66301   0.40040   0.60342   1.000
    O85     O    0.69195   0.34753   0.56635   1.000
    O86     O    0.67307   0.45468   0.65270   1.000
    O87     O    0.60729   0.34721   0.56419   1.000
    C88     C    0.80838   0.14001   0.83804   1.000
    O89     O    0.87319   0.17742   0.89248   1.000
    C90     C    0.30827   0.63988   0.83831   1.000
    O91     O    0.37309   0.67726   0.89278   1.000
    C92     C    0.38991   0.97104   0.16254   1.000
    O93     O    0.42727   0.98090   0.10786   1.000
    C94     C    0.11009   0.02895   0.83749   1.000
    O95     O    0.07272   0.01859   0.89216   1.000
    C96     C    0.88990   0.97104   0.16254   1.000
    O97     O    0.92727   0.98090   0.10785   1.000
    C98     C    0.16302   0.40039   0.60341   1.000
    O99     O    0.10729   0.34721   0.56418   1.000
    O100    O    0.19196   0.34753   0.56635   1.000
    O101    O    0.17307   0.45468   0.65268   1.000
    C102    C    0.83697   0.59959   0.39661   1.000
    O103    O    0.82692   0.54530   0.34734   1.000
    O104    O    0.89270   0.65277   0.43586   1.000
    O105    O    0.80803   0.65245   0.43368   1.000
    C106    C    0.11004   0.52876   0.83734   1.000
    O107    O    0.07269   0.51872   0.89207   1.000
    C108    C    0.61003   0.52876   0.83735   1.000
    O109    O    0.57268   0.51872   0.89205   1.000
    C110    C    0.19163   0.85998   0.16200   1.000
    O111    O    0.12682   0.82258   0.10755   1.000
    C112    C    0.38996   0.47123   0.16268   1.000
    O113    O    0.42731   0.48127   0.10794   1.000
    C114    C    0.63884   0.65031   0.60280   1.000
    O115    O    0.67492   0.68429   0.56397   1.000
    O116    O    0.65364   0.62058   0.65216   1.000
    O117    O    0.59134   0.68500   0.56612   1.000
    C118    C    0.61008   0.02894   0.83749   1.000
    O119    O    0.57272   0.01859   0.89217   1.000
    O120    O    0.86807   0.96157   0.18459   1.000
    O121    O    0.72422   0.88066   0.18418   1.000
    O122    O    0.13190   0.53821   0.81531   1.000
    O123    O    0.72429   0.38081   0.18399   1.000
    O124    O    0.27578   0.11933   0.81585   1.000
    O125    O    0.86809   0.46177   0.18472   1.000
    O126    O    0.22431   0.38081   0.18399   1.000
    O127    O    0.77578   0.11933   0.81586   1.000
    O128    O    0.63192   0.03841   0.81544   1.000
    O129    O    0.27571   0.61917   0.81604   1.000
    O130    O    0.13193   0.03841   0.81544   1.000
    O131    O    0.36807   0.96157   0.18459   1.000
    O132    O    0.22423   0.88066   0.18418   1.000
    O133    O    0.36810   0.46177   0.18472   1.000
    O134    O    0.77570   0.61917   0.81602   1.000
    O135    O    0.63189   0.53821   0.81531   1.000
loop_
    _geom_bond_atom_site_label_1
    _geom_bond_atom_site_label_2
    _geom_bond_distance
    _geom_bond_site_symmetry_2
    _ccdc_geom_bond_type
    C24    O25       1.12226      .   S
    N20    O25       2.19504      .   S
    C26    O27       1.12228      .   S
    N18    O27       2.19503      .   S
    C28    O29       1.18020      .   S
    Zr15   O29       2.21819      .   S
    C28    O30       1.18613      .   S
    Zr9    O30       2.22763  1_455   S
    C28    O31       1.02454      .   S
    Zr7    O31       2.10222      .   S
    C32    O33       1.18010      .   S
    Zr14   O33       2.21782      .   S
    C32    O34       1.02473      .   S
    Zr6    O34       2.10263      .   S
    C32    O35       1.18614      .   S
    Zr8    O35       2.22767      .   S
    C36    O37       1.18008      .   S
    Zr11   O37       2.21770      .   S
    C36    O38       1.18576      .   S
    Zr15   O38       2.22649      .   S
    C36    O39       1.02548      .   S
    Zr2    O39       2.10415  1_545   S
    C40    O41       1.18609      .   S
    Zr10   O41       2.22757      .   S
    C40    O42       1.02472      .   S
    Zr4    O42       2.10264      .   S
    C40    O43       1.18008      .   S
    Zr12   O43       2.21784      .   S
    C44    O45       1.18012      .   S
    Zr8    O45       2.21788      .   S
    C44    O46       1.02550      .   S
    Zr7    O46       2.10418  1_565   S
    C44    O47       1.18577      .   S
    Zr14   O47       2.22653      .   S
    C48    O49       1.12231      .   S
    N20    O49       2.19508  1_556   S
    C50    O51       1.12234      .   S
    N19    O51       2.19519  1_554   S
    C52    O53       1.18007      .   S
    Zr13   O53       2.21778      .   S
    C52    O54       1.02475      .   S
    Zr1    O54       2.10267      .   S
    C52    O55       1.18610      .   S
    Zr9    O55       2.22757      .   S
    C56    O57       1.02459      .   S
    Zr5    O57       2.10225      .   S
    C56    O58       1.18596      .   S
    Zr11   O58       2.22719      .   S
    C56    O59       1.18012      .   S
    Zr13   O59       2.21805      .   S
    C60    O61       1.12224      .   S
    N23    O61       2.19514      .   S
    C62    O63       1.18580      .   S
    Zr8    O63       2.22723  1_655   S
    C62    O64       1.17967      .   S
    Zr12   O64       2.21763      .   S
    C62    O65       1.02346      .   S
    Zr0    O65       2.10435      .   S
    C66    O67       1.18577      .   S
    Zr12   O67       2.22651      .   S
    C66    O68       1.18008      .   S
    Zr10   O68       2.21775      .   S
    C66    O69       1.02549      .   S
    Zr5    O69       2.10416  1_565   S
    C70    O71       1.18603      .   S
    Zr10   O71       2.22743      .   S
    C70    O72       1.02464      .   S
    Zr2    O72       2.10235      .   S
    C70    O73       1.18008      .   S
    Zr14   O73       2.21800      .   S
    C74    O75       1.12233      .   S
    N17    O75       2.19513  1_556   S
    C76    O77       1.18602      .   S
    Zr13   O77       2.22724      .   S
    C76    O78       1.18005      .   S
    Zr11   O78       2.21765      .   S
    C76    O79       1.02570      .   S
    Zr4    O79       2.10473      .   S
    C80    O81       1.18577      .   S
    Zr13   O81       2.22653      .   S
    C80    O82       1.02550      .   S
    Zr0    O82       2.10419  1_545   S
    C80    O83       1.18009      .   S
    Zr9    O83       2.21776      .   S
    C84    O85       1.18601      .   S
    Zr14   O85       2.22722      .   S
    C84    O86       1.02570      .   S
    Zr3    O86       2.10472      .   S
    C84    O87       1.18005      .   S
    Zr10   O87       2.21761      .   S
    C88    O89       1.12230      .   S
    N17    O89       2.19510  1_455   S
    C90    O91       1.12231      .   S
    N18    O91       2.19508  1_554   S
    C92    O93       1.12051      .   S
    N22    O93       2.18999      .   S
    C94    O95       1.12387      .   S
    N21    O95       2.19999  1_665   S
    C96    O97       1.12066      .   S
    N21    O97       2.19054  1_556   S
    C98    O99       1.18005      .   S
    Zr8    O99       2.21761  1_655   S
    C98    O100      1.18600      .   S
    Zr12   O100      2.22721      .   S
    C98    O101      1.02564      .   S
    Zr1    O101      2.10476      .   S
    C102   O103      1.02569      .   S
    Zr6    O103      2.10469      .   S
    C102   O104      1.18007      .   S
    Zr9    O104      2.21770  1_455   S
    C102   O105      1.18603      .   S
    Zr15   O105      2.22725      .   S
    C106   O107      1.12220      .   S
    N23    O107      2.19508  1_654   S
    C108   O109      1.12195      .   S
    N16    O109      2.19434      .   S
    C110   O111      1.12231      .   S
    N19    O111      2.19512  1_655   S
    C112   O113      1.12242      .   S
    N16    O113      2.19575  1_556   S
    C114   O115      1.18003      .   S
    Zr15   O115      2.21770      .   S
    C114   O116      1.02475      .   S
    Zr3    O116      2.10264      .   S
    C114   O117      1.18617      .   S
    Zr11   O117      2.22782      .   S
    C118   O119      1.12401      .   S
    N22    O119      2.20036  1_564   S
    Zr7    O120      1.50695      .   S
    C96    O120      0.57261      .   S
    Zr7    O121      1.50324      .   S
    C26    O121      0.57146      .   S
    C106   O122      0.57258      .   S
    Zr1    O122      1.50688      .   S
    C48    O123      0.57134      .   S
    Zr6    O123      1.50281      .   S
    C24    O124      0.57147      .   S
    Zr0    O124      1.50325      .   S
    C60    O125      0.57261      .   S
    Zr6    O125      1.50690      .   S
    C74    O126      0.57133      .   S
    Zr4    O126      1.50281      .   S
    Zr2    O127      1.50325      .   S
    C88    O127      0.57147      .   S
    Zr2    O128      1.50696      .   S
    C118   O128      0.57262      .   S
    Zr1    O129      1.50280      .   S
    C90    O129      0.57133      .   S
    Zr0    O130      1.50693      .   S
    C94    O130      0.57260      .   S
    Zr5    O131      1.50696      .   S
    C92    O131      0.57262      .   S
    Zr5    O132      1.50326      .   S
    C110   O132      0.57147      .   S
    Zr4    O133      1.50686      .   S
    C112   O133      0.57258      .   S
    Zr3    O134      1.50280      .   S
    C50    O134      0.57134      .   S
    Zr3    O135      1.50694      .   S
    C108   O135      0.57260      .   S
