# CIF file generated by openbabel 2.4.90, see http://openbabel.sf.net
data_I
_chemical_name_common ''
_cell_length_a 12.365
_cell_length_b 20.163
_cell_length_c 20.18
_cell_angle_alpha 102.302
_cell_angle_beta 94.912
_cell_angle_gamma 94.696
_space_group_name_H-M_alt 'P 1'
_space_group_name_Hall 'P 1'
loop_
    _symmetry_equiv_pos_as_xyz
    x,y,z
loop_
    _atom_site_label
    _atom_site_type_symbol
    _atom_site_fract_x
    _atom_site_fract_y
    _atom_site_fract_z
    _atom_site_occupancy
    Zn0     Zn   0.80517   0.01648   0.52665   1.000
    Zn1     Zn   0.41201   0.33328   0.60583   1.000
    Zn2     Zn   0.50489   0.48363   0.75530   1.000
    Zn3     Zn   0.11599   0.56046   0.07286   1.000
    Zn4     Zn   0.30521   0.52594   0.01643   1.000
    Zn5     Zn   0.91217   0.60581   0.33317   1.000
    Zn6     Zn   0.00503   0.75533   0.48350   1.000
    Zn7     Zn   0.61578   0.07295   0.55951   1.000
    C8      C    0.36017   0.33590   0.47837   1.000
    C9      C    0.78408   0.70951   0.41712   1.000
    C10     C    0.60090   0.95697   0.43692   1.000
    C11     C    0.31870   0.64804   0.13494   1.000
    O12     O    0.05052   0.47177   0.00266   1.000
    O13     O    0.20232   0.44762   0.95018   1.000
    O14     O    0.87115   0.09465   0.60813   1.000
    O15     O    0.71502   0.13341   0.64512   1.000
    O16     O    0.17136   0.50368   0.13907   1.000
    C17     C    0.75490   0.13607   0.47162   1.000
    C18     C    0.86048   0.47838   0.33583   1.000
    C19     C    0.28397   0.41736   0.70947   1.000
    C20     C    0.63231   0.38001   0.67179   1.000
    C21     C    0.66639   0.95282   0.61416   1.000
    C22     C    0.55438   0.61007   0.74861   1.000
    C23     C    0.10089   0.43735   0.95661   1.000
    C24     C    0.81850   0.13481   0.64819   1.000
    C25     C    0.25579   0.47115   0.13557   1.000
    C26     C    0.13247   0.67162   0.37999   1.000
    C27     C    0.16646   0.61475   0.95304   1.000
    C28     C    0.05445   0.74876   0.61002   1.000
    O29     O    0.55064   0.00379   0.47020   1.000
    O30     O    0.70197   0.94992   0.44822   1.000
    O31     O    0.37103   0.60811   0.09450   1.000
    O32     O    0.21522   0.64494   0.13393   1.000
    O33     O    0.67158   0.14079   0.50496   1.000
    O34     O    0.81583   0.08747   0.46648   1.000
    O35     O    0.92643   0.47496   0.29157   1.000
    O36     O    0.82389   0.53565   0.36390   1.000
    O37     O    0.59599   0.99512   0.60972   1.000
    O38     O    0.34518   0.47203   0.73776   1.000
    O39     O    0.31835   0.36083   0.68254   1.000
    O40     O    0.57142   0.35287   0.61657   1.000
    O41     O    0.59723   0.40602   0.72826   1.000
    O42     O    0.75940   0.95531   0.59141   1.000
    O43     O    0.59257   0.55280   0.72240   1.000
    O44     O    0.48627   0.61385   0.79166   1.000
    O45     O    0.31837   0.46668   0.08798   1.000
    O46     O    0.42625   0.29156   0.47505   1.000
    O47     O    0.32359   0.36405   0.53552   1.000
    O48     O    0.09651   0.61131   0.99561   1.000
    O49     O    0.84539   0.73781   0.47100   1.000
    O50     O    0.81837   0.68263   0.36063   1.000
    O51     O    0.07172   0.61639   0.35284   1.000
    O52     O    0.09726   0.72813   0.40602   1.000
    O53     O    0.25891   0.59105   0.95531   1.000
    O54     O    0.09268   0.72241   0.55291   1.000
    O55     O    0.98624   0.79191   0.61366   1.000
    Ts56    Ts   0.85259   0.00064   0.51838   1.000
    Ts57    Ts   0.40649   0.29875   0.60787   1.000
    Ts58    Ts   0.51238   0.48289   0.79016   1.000
    Ts59    Ts   0.06947   0.57024   0.08892   1.000
    Ts60    Ts   0.35261   0.51781   0.00055   1.000
    Ts61    Ts   0.90669   0.60786   0.29864   1.000
    Ts62    Ts   0.01254   0.79016   0.48279   1.000
    Ts63    Ts   0.56930   0.08897   0.56947   1.000
    Og64    Og   0.34689   0.34430   0.45792   1.000
    Og65    Og   0.74417   0.70987   0.41814   1.000
    Og66    Og   0.57861   0.93975   0.41811   1.000
    Og67    Og   0.34114   0.66618   0.15280   1.000
    Og68    Og   0.76480   0.15506   0.46025   1.000
    Og69    Og   0.84726   0.45797   0.34425   1.000
    Og70    Og   0.24406   0.41838   0.70985   1.000
    Og71    Og   0.67224   0.37964   0.67091   1.000
    Og72    Og   0.65600   0.93362   0.62514   1.000
    Og73    Og   0.56792   0.63038   0.74014   1.000
    Og74    Og   0.07857   0.41851   0.93944   1.000
    Og75    Og   0.84093   0.15269   0.66633   1.000
    Og76    Og   0.26553   0.45984   0.15465   1.000
    Og77    Og   0.17240   0.67074   0.37960   1.000
    Og78    Og   0.15610   0.62574   0.93382   1.000
    Og79    Og   0.06803   0.74031   0.63037   1.000
loop_
    _geom_bond_atom_site_label_1
    _geom_bond_atom_site_label_2
    _geom_bond_distance
    _geom_bond_site_symmetry_2
    _ccdc_geom_bond_type
    O12    Zn3       2.08499      .   S
    O12    C23       1.27596  1_554   S
    Zn4    O45       2.06546      .   S
    Zn4    O31       2.08245      .   S
    Zn4    O13       2.09282  1_554   S
    Zn4    O53       2.06506  1_554   S
    Zn3    O32       2.10484      .   S
    Zn3    O16       2.04649      .   S
    Zn3    O48       2.04857  1_554   S
    O45    C25       1.27708      .   S
    O31    C11       1.27620      .   S
    O32    C11       1.27410      .   S
    C25    O16       1.27665      .   S
    O35    C18       1.25507      .   S
    Zn5    O51       1.96362  1_655   S
    Zn5    O50       2.02239      .   S
    Zn5    O36       1.95298      .   S
    C18    O36       1.30751      .   S
    O51    C26       1.27943      .   S
    O50    C9        1.27683      .   S
    C26    O52       1.27641      .   S
    O52    Zn6       2.02193      .   S
    C9     O49       1.26732      .   S
    C10    O30       1.27599      .   S
    C10    O29       1.27516  1_565   S
    O30    Zn0       2.09835  1_565   S
    O34    C17       1.27659      .   S
    O34    Zn0       2.06818      .   S
    O29    Zn7       2.08284      .   S
    O49    Zn6       1.96160  1_655   S
    C17    O33       1.27695      .   S
    O46    C8        1.25501      .   S
    C8     O47       1.30736      .   S
    Zn6    O54       1.95730      .   S
    O33    Zn7       2.04352      .   S
    Zn0    O42       2.06127  1_545   S
    Zn0    O14       2.07570      .   S
    O47    Zn1       1.95291      .   S
    O54    C28       1.30668      .   S
    Zn7    O37       2.05103  1_545   S
    Zn7    O15       2.11445      .   S
    O42    C21       1.27549      .   S
    Zn1    O40       1.96250      .   S
    Zn1    O39       2.02281      .   S
    O14    C24       1.27700      .   S
    O37    C21       1.27819      .   S
    C28    O55       1.25596  1_455   S
    O40    C20       1.27944      .   S
    O15    C24       1.27342      .   S
    C20    O41       1.27632      .   S
    O39    C19       1.27685      .   S
    C19    O38       1.27874      .   S
    O43    C22       1.30673      .   S
    O43    Zn2       1.95750      .   S
    O41    Zn2       2.02131      .   S
    O38    Zn2       1.96194      .   S
    C22    O44       1.25589      .   S
    O13    C23       1.27651      .   S
    C27    O53       1.27556      .   S
    C27    O48       1.27824      .   S
    Zn7    Zn0       2.75704      .   S
    Zn3    Zn4       2.76422      .   S
    Zn0    Ts56      0.70586      .   S
    Zn1    Ts57      0.70424      .   S
    Zn2    Ts58      0.70507      .   S
    Zn3    Ts59      0.70570      .   S
    Zn4    Ts60      0.70604      .   S
    Zn5    Ts61      0.70465      .   S
    Zn6    Ts62      0.70420      .   S
    Zn7    Ts63      0.70541      .   S
    C8     Og64      0.49859      .   S
    C9     Og65      0.49617      .   S
    C10    Og66      0.50081      .   S
    C11    Og67      0.50079      .   S
    C17    Og68      0.49898      .   S
    C18    Og69      0.49858      .   S
    C19    Og70      0.49622      .   S
    C20    Og71      0.49614      .   S
    C21    Og72      0.49870      .   S
    C22    Og73      0.49861      .   S
    C23    Og74      0.50095      .   S
    C24    Og75      0.50084      .   S
    C25    Og76      0.49878      .   S
    C26    Og77      0.49615      .   S
    C27    Og78      0.49864      .   S
    C28    Og79      0.49851      .   S
