# CIF file generated by openbabel 2.4.90, see http://openbabel.sf.net
data_I
_chemical_name_common ''
_cell_length_a 14.721
_cell_length_b 20.476
_cell_length_c 13.142
_cell_angle_alpha 89.99
_cell_angle_beta 89.928
_cell_angle_gamma 99.094
_space_group_name_H-M_alt 'P 1'
_space_group_name_Hall 'P 1'
loop_
    _symmetry_equiv_pos_as_xyz
    x,y,z
loop_
    _atom_site_label
    _atom_site_type_symbol
    _atom_site_fract_x
    _atom_site_fract_y
    _atom_site_fract_z
    _atom_site_occupancy
    C0      C    0.50191   0.14171   0.16980   1.000
    C1      C    0.50191   0.64173   0.16980   1.000
    C2      C    0.00000   0.14171   0.16980   1.000
    C3      C    0.00000   0.64173   0.16980   1.000
    C4      C    0.22349   0.27772   0.98170   1.000
    C5      C    0.22349   0.77773   0.98170   1.000
    C6      C    0.72347   0.27772   0.98170   1.000
    C7      C    0.72348   0.77773   0.98170   1.000
    C8      C    0.99800   0.10837   0.66945   1.000
    C9      C    0.99800   0.60838   0.66945   1.000
    C10     C    0.49798   0.10837   0.66945   1.000
    C11     C    0.49799   0.60839   0.66945   1.000
    C12     C    0.27655   0.47230   0.48181   1.000
    C13     C    0.27656   0.97231   0.48181   1.000
    C14     C    0.77654   0.47230   0.48181   1.000
    C15     C    0.77655   0.97231   0.48181   1.000
    C16     C    0.99807   0.35830   0.83019   1.000
    C17     C    0.99808   0.85831   0.83019   1.000
    C18     C    0.49806   0.35830   0.83019   1.000
    C19     C    0.49807   0.85831   0.83019   1.000
    C20     C    0.27650   0.22229   0.01826   1.000
    C21     C    0.27650   0.72231   0.01826   1.000
    C22     C    0.77649   0.22229   0.01826   1.000
    C23     C    0.77649   0.72231   0.01826   1.000
    C24     C    0.50199   0.39164   0.33054   1.000
    C25     C    0.50200   0.89165   0.33054   1.000
    C26     C    0.00000   0.39164   0.33054   1.000
    C27     C    0.00000   0.89165   0.33054   1.000
    C28     C    0.22343   0.02771   0.51818   1.000
    C29     C    0.22344   0.52772   0.51818   1.000
    C30     C    0.72342   0.02771   0.51818   1.000
    C31     C    0.72342   0.52772   0.51818   1.000
    O32     O    0.04214   0.17261   0.09518   1.000
    O33     O    0.04214   0.67262   0.09518   1.000
    O34     O    0.54213   0.17261   0.09518   1.000
    O35     O    0.54213   0.67262   0.09518   1.000
    O36     O    0.47292   0.16925   0.24853   1.000
    O37     O    0.47293   0.66927   0.24853   1.000
    O38     O    0.97291   0.16925   0.24853   1.000
    O39     O    0.97291   0.66927   0.24853   1.000
    O40     O    0.14814   0.26087   0.93697   1.000
    O41     O    0.14814   0.76089   0.93697   1.000
    O42     O    0.64813   0.26087   0.93697   1.000
    O43     O    0.64813   0.76089   0.93697   1.000
    O44     O    0.26173   0.33712   0.00000   1.000
    O45     O    0.26173   0.83714   0.00000   1.000
    O46     O    0.76172   0.33712   0.00000   1.000
    O47     O    0.76172   0.83714   0.00000   1.000
    O48     O    0.45734   0.07749   0.59518   1.000
    O49     O    0.45734   0.57751   0.59518   1.000
    O50     O    0.95732   0.07749   0.59518   1.000
    O51     O    0.95733   0.57750   0.59518   1.000
    O52     O    0.02705   0.08080   0.74800   1.000
    O53     O    0.02705   0.58081   0.74800   1.000
    O54     O    0.52703   0.08080   0.74800   1.000
    O55     O    0.52704   0.58081   0.74800   1.000
    O56     O    0.35145   0.48901   0.43591   1.000
    O57     O    0.35146   0.98902   0.43591   1.000
    O58     O    0.85144   0.48901   0.43591   1.000
    O59     O    0.85144   0.98902   0.43591   1.000
    O60     O    0.23870   0.41296   0.50195   1.000
    O61     O    0.23871   0.91297   0.50195   1.000
    O62     O    0.73869   0.41296   0.50195   1.000
    O63     O    0.73870   0.91297   0.50195   1.000
    O64     O    0.45784   0.32740   0.90480   1.000
    O65     O    0.45785   0.82742   0.90480   1.000
    O66     O    0.95783   0.32740   0.90480   1.000
    O67     O    0.95784   0.82742   0.90480   1.000
    O68     O    0.02706   0.33076   0.75146   1.000
    O69     O    0.02707   0.83077   0.75146   1.000
    O70     O    0.52705   0.33076   0.75146   1.000
    O71     O    0.52706   0.83077   0.75146   1.000
    O72     O    0.35185   0.23914   0.06302   1.000
    O73     O    0.35185   0.73915   0.06302   1.000
    O74     O    0.85183   0.23914   0.06302   1.000
    O75     O    0.85184   0.73915   0.06302   1.000
    O76     O    0.23826   0.16289   0.99947   1.000
    O77     O    0.23826   0.66290   0.99947   1.000
    O78     O    0.73824   0.16289   0.99947   1.000
    O79     O    0.73825   0.66290   0.99947   1.000
    O80     O    0.04265   0.42252   0.40481   1.000
    O81     O    0.04265   0.92253   0.40481   1.000
    O82     O    0.54264   0.42252   0.40481   1.000
    O83     O    0.54264   0.92253   0.40480   1.000
    O84     O    0.47294   0.41921   0.25190   1.000
    O85     O    0.47295   0.91923   0.25190   1.000
    O86     O    0.97293   0.41922   0.25199   1.000
    O87     O    0.97293   0.91923   0.25199   1.000
    O88     O    0.14853   0.01100   0.56408   1.000
    O89     O    0.14854   0.51101   0.56408   1.000
    O90     O    0.64852   0.01100   0.56408   1.000
    O91     O    0.64853   0.51101   0.56408   1.000
    O92     O    0.26128   0.08705   0.49804   1.000
    O93     O    0.26129   0.58706   0.49804   1.000
    O94     O    0.76127   0.08705   0.49804   1.000
    O95     O    0.76127   0.58706   0.49804   1.000
loop_
    _geom_bond_atom_site_label_1
    _geom_bond_atom_site_label_2
    _geom_bond_distance
    _geom_bond_site_symmetry_2
    _ccdc_geom_bond_type
    O44    C4        1.28003  1_554   S
    O45    C5        1.28003  1_554   S
    O46    C6        1.28004  1_554   S
    O47    C7        1.28004  1_554   S
    C23    O75       1.25539      .   S
    C23    C7        1.55190  1_554   S
    C23    O79       1.28126  1_554   S
    C20    O72       1.25538      .   S
    C20    C4        1.55191  1_554   S
    C20    O76       1.28126  1_554   S
    C21    O73       1.25539      .   S
    C21    C5        1.55191  1_554   S
    C21    O77       1.28126  1_554   S
    C22    O74       1.25539      .   S
    C22    C6        1.55189  1_554   S
    C22    O78       1.28125  1_554   S
    O32    C2        1.27313      .   S
    O35    C1        1.26185      .   S
    O33    C3        1.27315      .   S
    O34    C0        1.26185      .   S
    C2     O38       1.27194  1_455   S
    C3     O39       1.27191  1_455   S
    C1     O37       1.28290      .   S
    C0     O36       1.28289      .   S
    O85    C25       1.28337      .   S
    O84    C24       1.28337      .   S
    O87    C27       1.27092  1_655   S
    O86    C26       1.27095  1_655   S
    C26    O80       1.27394      .   S
    C24    O82       1.26198      .   S
    C25    O83       1.26187      .   S
    C27    O81       1.27396      .   S
    O59    C15       1.25525      .   S
    O58    C14       1.25526      .   S
    O57    C13       1.25527      .   S
    O56    C12       1.25525      .   S
    C15    O63       1.28154      .   S
    C15    C30       1.55132  1_565   S
    C14    O62       1.28154      .   S
    C14    C31       1.55163      .   S
    C13    O61       1.28153      .   S
    C13    C28       1.55131  1_565   S
    C12    O60       1.28154      .   S
    C12    C29       1.55164      .   S
    O95    C31       1.28154      .   S
    O92    C28       1.28154      .   S
    O93    C29       1.28154      .   S
    O94    C30       1.28154      .   S
    C30    O90       1.25525      .   S
    C31    O91       1.25526      .   S
    C29    O89       1.25525      .   S
    C28    O88       1.25527      .   S
    O51    C9        1.26213      .   S
    O50    C8        1.26213      .   S
    O49    C11       1.26198      .   S
    O48    C10       1.26198      .   S
    C11    O55       1.28244      .   S
    C10    O54       1.28243      .   S
    C9     O53       1.28243  1_655   S
    C8     O52       1.28243  1_655   S
    O68    C16       1.28289  1_455   S
    O69    C17       1.28289  1_455   S
    O70    C18       1.28290      .   S
    O71    C19       1.28290      .   S
    C16    O66       1.26189      .   S
    C17    O67       1.26189      .   S
    C18    O64       1.26176      .   S
    C19    O65       1.26174      .   S
    O40    C4        1.25520      .   S
    O41    C5        1.25519      .   S
    O42    C6        1.25520      .   S
    O43    C7        1.25519      .   S
