# CIF file generated by openbabel 2.4.90, see http://openbabel.sf.net
data_I
_chemical_name_common ''
_cell_length_a 13.958
_cell_length_b 14.283
_cell_length_c 14.292
_cell_angle_alpha 95.047
_cell_angle_beta 106.523
_cell_angle_gamma 107.078
_space_group_name_H-M_alt 'P 1'
_space_group_name_Hall 'P 1'
loop_
    _symmetry_equiv_pos_as_xyz
    x,y,z
loop_
    _atom_site_label
    _atom_site_type_symbol
    _atom_site_fract_x
    _atom_site_fract_y
    _atom_site_fract_z
    _atom_site_occupancy
    Zr0     Zr   0.14067   0.12723   0.83923   1.000
    Zr1     Zr   0.36074   0.16198   0.87235   1.000
    Zr2     Zr   0.85933   0.87276   0.16077   1.000
    Zr3     Zr   0.63926   0.83802   0.12765   1.000
    Zr4     Zr   0.20826   0.94979   0.84224   1.000
    Zr5     Zr   0.29794   0.33778   0.87194   1.000
    Zr6     Zr   0.29155   0.15673   0.04963   1.000
    Zr7     Zr   0.20462   0.12978   0.66341   1.000
    Zr8     Zr   0.79174   0.05020   0.15775   1.000
    Zr9     Zr   0.70205   0.66221   0.12806   1.000
    Zr10    Zr   0.70845   0.84326   0.95037   1.000
    Zr11    Zr   0.79538   0.87021   0.33659   1.000
    Zr12    Zr   0.12797   0.97657   0.83917   1.000
    Zr13    Zr   0.38035   0.31149   0.89324   1.000
    Zr14    Zr   0.30016   0.00698   0.84782   1.000
    Zr15    Zr   0.20196   0.28014   0.84750   1.000
    Zr16    Zr   0.37166   0.16056   0.02182   1.000
    Zr17    Zr   0.12224   0.10720   0.69044   1.000
    Zr18    Zr   0.19935   0.14968   0.99346   1.000
    Zr19    Zr   0.30065   0.15569   0.72019   1.000
    Zr20    Zr   0.87202   0.02342   0.16082   1.000
    Zr21    Zr   0.61965   0.68851   0.10676   1.000
    Zr22    Zr   0.69984   0.99301   0.15217   1.000
    Zr23    Zr   0.79804   0.71985   0.15250   1.000
    Zr24    Zr   0.62833   0.83942   0.97817   1.000
    Zr25    Zr   0.87776   0.89279   0.30955   1.000
    Zr26    Zr   0.80065   0.85031   0.00653   1.000
    Zr27    Zr   0.69934   0.84431   0.27981   1.000
    O28     O    0.82999   0.86153   0.08365   1.000
    O29     O    0.75455   0.84679   0.97845   1.000
    O30     O    0.33161   0.15864   0.03573   1.000
    O31     O    0.36620   0.16127   0.94709   1.000
    O32     O    0.24545   0.15320   0.02155   1.000
    O33     O    0.62946   0.76326   0.11720   1.000
    O34     O    0.66085   0.67536   0.11741   1.000
    O35     O    0.66955   0.91552   0.13991   1.000
    O36     O    0.66930   0.84117   0.20373   1.000
    O37     O    0.63380   0.83872   0.05291   1.000
    O38     O    0.75005   0.69103   0.14028   1.000
    O39     O    0.74579   0.02161   0.15496   1.000
    O40     O    0.82868   0.79630   0.15663   1.000
    O41     O    0.83188   0.03681   0.15929   1.000
    O42     O    0.86568   0.94809   0.16080   1.000
    O43     O    0.86854   0.88277   0.23516   1.000
    O44     O    0.74736   0.85726   0.30820   1.000
    O45     O    0.83657   0.88150   0.32307   1.000
    O46     O    0.16343   0.11849   0.67692   1.000
    O47     O    0.25264   0.14274   0.69180   1.000
    O48     O    0.13145   0.11721   0.76483   1.000
    O49     O    0.33070   0.15883   0.79627   1.000
    O50     O    0.13432   0.05190   0.83920   1.000
    O51     O    0.16812   0.96318   0.84070   1.000
    O52     O    0.17131   0.20368   0.84336   1.000
    O53     O    0.17001   0.13846   0.91635   1.000
    O54     O    0.25421   0.97839   0.84503   1.000
    O55     O    0.24995   0.30896   0.85972   1.000
    O56     O    0.33045   0.08448   0.86008   1.000
    O57     O    0.33914   0.32464   0.88259   1.000
    O58     O    0.37054   0.23673   0.88279   1.000
    O59     O    0.66839   0.84134   0.96427   1.000
    O60     O    0.25070   0.14461   0.85579   1.000
    O61     O    0.74930   0.85539   0.14421   1.000
    N62     N    0.25809   0.64604   0.86866   1.000
    O63     O    0.28195   0.51872   0.87126   1.000
    O64     O    0.23020   0.77144   0.85558   1.000
    N65     N    0.75060   0.14300   0.85719   1.000
    O66     O    0.59293   0.15272   0.86577   1.000
    O67     O    0.90834   0.13410   0.84791   1.000
    N68     N    0.25016   0.85700   0.14280   1.000
    O69     O    0.09204   0.86589   0.15209   1.000
    O70     O    0.40745   0.84727   0.13422   1.000
    N71     N    0.74191   0.35396   0.13134   1.000
    O72     O    0.71805   0.48127   0.12873   1.000
    O73     O    0.76980   0.22855   0.14441   1.000
    N74     N    0.75659   0.86763   0.64554   1.000
    O75     O    0.72938   0.85537   0.77148   1.000
    O76     O    0.77999   0.86995   0.51784   1.000
    N77     N    0.24341   0.13237   0.35445   1.000
    O78     O    0.22001   0.13005   0.48215   1.000
    O79     O    0.27061   0.14462   0.22851   1.000
loop_
    _geom_bond_atom_site_label_1
    _geom_bond_atom_site_label_2
    _geom_bond_distance
    _geom_bond_site_symmetry_2
    _ccdc_geom_bond_type
    Zr26   O28       1.04013      .   S
    Zr2    O28       1.04013      .   S
    Zr26   O29       0.63891  1_554   S
    Zr10   O29       0.63891      .   S
    Zr16   O30       0.63872      .   S
    Zr6    O30       0.63872      .   S
    Zr16   O31       1.05022  1_554   S
    Zr1    O31       1.05022      .   S
    Zr6    O32       0.63892      .   S
    Zr18   O32       0.63892  1_556   S
    Zr21   O33       1.02743      .   S
    Zr3    O33       1.02743      .   S
    Zr21   O34       0.63861      .   S
    Zr9    O34       0.63861      .   S
    Zr3    O35       1.04093      .   S
    Zr22   O35       1.04093      .   S
    Zr3    O36       1.03977      .   S
    Zr27   O36       1.03977      .   S
    Zr3    O37       1.05022      .   S
    Zr24   O37       1.05022  1_556   S
    Zr9    O38       0.63838      .   S
    Zr23   O38       0.63838      .   S
    Zr22   O39       0.63911  1_565   S
    Zr8    O39       0.63911      .   S
    Zr23   O40       1.03862      .   S
    Zr2    O40       1.03862      .   S
    Zr8    O41       0.63850      .   S
    Zr20   O41       0.63850      .   S
    Zr2    O42       1.05335      .   S
    Zr20   O42       1.05335  1_545   S
    Zr2    O43       1.02571      .   S
    Zr25   O43       1.02571      .   S
    Zr27   O44       0.63823      .   S
    Zr11   O44       0.63823      .   S
    Zr25   O45       0.63880      .   S
    Zr11   O45       0.63880      .   S
    Zr7    O46       0.63880      .   S
    Zr17   O46       0.63880      .   S
    Zr7    O47       0.63823      .   S
    Zr19   O47       0.63823      .   S
    Zr17   O48       1.02572      .   S
    Zr0    O48       1.02572      .   S
    Zr19   O49       1.03976      .   S
    Zr1    O49       1.03976      .   S
    Zr12   O50       1.05333  1_565   S
    Zr0    O50       1.05333      .   S
    Zr12   O51       0.63850      .   S
    Zr4    O51       0.63850      .   S
    Zr0    O52       1.03863      .   S
    Zr15   O52       1.03863      .   S
    Zr0    O53       1.04012      .   S
    Zr18   O53       1.04012      .   S
    Zr4    O54       0.63911      .   S
    Zr14   O54       0.63911  1_545   S
    Zr15   O55       0.63838      .   S
    Zr5    O55       0.63838      .   S
    Zr14   O56       1.04095      .   S
    Zr1    O56       1.04095      .   S
    Zr5    O57       0.63862      .   S
    Zr13   O57       0.63862      .   S
    Zr1    O58       1.02741      .   S
    Zr13   O58       1.02741      .   S
    Zr10   O59       0.63872      .   S
    Zr24   O59       0.63872      .   S
    Zr0    O60       1.42674      .   S
    Zr1    O60       1.42674      .   S
    Zr2    O61       1.42674      .   S
    Zr3    O61       1.42674      .   S
    N62    O63       1.94420      .   S
    Zr5    O63       2.65902      .   S
    N62    O64       1.95500      .   S
    Zr4    O64       2.67011      .   S
    N65    O66       2.28216      .   S
    Zr1    O66       3.30941      .   S
    N65    O67       2.28223      .   S
    Zr0    O67       3.30975  1_455   S
    N68    O69       2.28753      .   S
    Zr2    O69       3.31507  1_655   S
    N68    O70       2.27686      .   S
    Zr3    O70       3.30409      .   S
    N71    O72       1.94421      .   S
    Zr9    O72       2.65903      .   S
    N71    O73       1.95499      .   S
    Zr8    O73       2.67009      .   S
    N74    O75       1.95442      .   S
    Zr10   O75       2.66922      .   S
    N74    O76       1.94473      .   S
    Zr11   O76       2.65982      .   S
    N77    O78       1.94474      .   S
    Zr7    O78       2.65983      .   S
    N77    O79       1.95442      .   S
    Zr6    O79       2.66922      .   S
