# CIF file generated by openbabel 2.4.90, see http://openbabel.sf.net
data_I
_chemical_name_common ''
_cell_length_a 18.591
_cell_length_b 14.43
_cell_length_c 17.459
_cell_angle_alpha 99.039
_cell_angle_beta 89.947
_cell_angle_gamma 108.708
_space_group_name_H-M_alt 'P 1'
_space_group_name_Hall 'P 1'
loop_
    _symmetry_equiv_pos_as_xyz
    x,y,z
loop_
    _atom_site_label
    _atom_site_type_symbol
    _atom_site_fract_x
    _atom_site_fract_y
    _atom_site_fract_z
    _atom_site_occupancy
    Lv0     Lv   0.16941   0.43166   0.15112   1.000
    Lv1     Lv   0.28377   0.01514   0.13451   1.000
    Lv2     Lv   0.77657   0.98460   0.36581   1.000
    Lv3     Lv   0.27655   0.98460   0.36580   1.000
    Lv4     Lv   0.45303   0.56761   0.34832   1.000
    Lv5     Lv   0.66942   0.43167   0.15111   1.000
    Lv6     Lv   0.71625   0.98487   0.86546   1.000
    Lv7     Lv   0.22346   0.01541   0.63417   1.000
    Lv8     Lv   0.21625   0.98487   0.86547   1.000
    Lv9     Lv   0.54699   0.43239   0.65164   1.000
    Lv10    Lv   0.95303   0.56761   0.34833   1.000
    Lv11    Lv   0.72347   0.01541   0.63418   1.000
    Lv12    Lv   0.78377   0.01514   0.13451   1.000
    Lv13    Lv   0.04699   0.43239   0.65165   1.000
    Lv14    Lv   0.33059   0.56832   0.84886   1.000
    Lv15    Lv   0.83060   0.56833   0.84888   1.000
