# CIF file generated by openbabel 2.4.90, see http://openbabel.sf.net
data_I
_chemical_name_common ''
_cell_length_a 21.562
_cell_length_b 17.666
_cell_length_c 17.196
_cell_angle_alpha 89.986
_cell_angle_beta 89.955
_cell_angle_gamma 90.011
_space_group_name_H-M_alt 'P 1'
_space_group_name_Hall 'P 1'
loop_
    _symmetry_equiv_pos_as_xyz
    x,y,z
loop_
    _atom_site_label
    _atom_site_type_symbol
    _atom_site_fract_x
    _atom_site_fract_y
    _atom_site_fract_z
    _atom_site_occupancy
    Lv0     Lv   0.07653   0.57157   0.25810   1.000
    Lv1     Lv   0.43858   0.11276   0.76385   1.000
    Lv2     Lv   0.31044   0.88587   0.26348   1.000
    Lv3     Lv   0.57601   0.57049   0.25734   1.000
    Lv4     Lv   0.82708   0.92731   0.74190   1.000
    Lv5     Lv   0.42435   0.07059   0.24224   1.000
    Lv6     Lv   0.18916   0.38584   0.23563   1.000
    Lv7     Lv   0.67388   0.42760   0.75738   1.000
    Lv8     Lv   0.92310   0.07137   0.24083   1.000
    Lv9     Lv   0.32635   0.92707   0.74127   1.000
    Lv10    Lv   0.68931   0.38563   0.23527   1.000
    Lv11    Lv   0.06132   0.61334   0.73542   1.000
    Lv12    Lv   0.93869   0.11333   0.76265   1.000
    Lv13    Lv   0.81092   0.88591   0.26322   1.000
    Lv14    Lv   0.17341   0.42701   0.75720   1.000
    Lv15    Lv   0.56075   0.61315   0.73557   1.000
