# CIF file generated by openbabel 2.4.90, see http://openbabel.sf.net
data_I
_chemical_name_common ''
_cell_length_a 25.575
_cell_length_b 12.77
_cell_length_c 17.715
_cell_angle_alpha 89.717
_cell_angle_beta 105.363
_cell_angle_gamma 90.194
_space_group_name_H-M_alt 'P 1'
_space_group_name_Hall 'P 1'
loop_
    _symmetry_equiv_pos_as_xyz
    x,y,z
loop_
    _atom_site_label
    _atom_site_type_symbol
    _atom_site_fract_x
    _atom_site_fract_y
    _atom_site_fract_z
    _atom_site_occupancy
    C0      C    0.15169   0.73969   0.87609   1.000
    C1      C    0.65168   0.73969   0.87609   1.000
    C2      C    0.30631   0.58026   0.15473   1.000
    C3      C    0.80630   0.58026   0.15473   1.000
    C4      C    0.21863   0.08480   0.84042   1.000
    C5      C    0.71862   0.08480   0.84042   1.000
    C6      C    0.03381   0.91866   0.86644   1.000
    C7      C    0.53380   0.91866   0.86644   1.000
    C8      C    0.09909   0.24276   0.62260   1.000
    C9      C    0.59908   0.24276   0.62260   1.000
    C10     C    0.44599   0.07972   0.34456   1.000
    C11     C    0.94598   0.07973   0.34456   1.000
    C12     C    0.02990   0.58477   0.65914   1.000
    C13     C    0.52989   0.58478   0.65914   1.000
    C14     C    0.21624   0.42489   0.63591   1.000
    C15     C    0.71622   0.42489   0.63591   1.000
    C16     C    0.34823   0.26028   0.12394   1.000
    C17     C    0.84821   0.26028   0.12394   1.000
    C18     C    0.19364   0.41972   0.84526   1.000
    C19     C    0.69363   0.41972   0.84526   1.000
    C20     C    0.28085   0.91555   0.15952   1.000
    C21     C    0.78084   0.91555   0.15952   1.000
    O22     O    0.57777   0.84402   0.70246   1.000
    O23     O    0.42805   0.44879   0.29140   1.000
    O24     O    0.92804   0.44879   0.29142   1.000
    O25     O    0.99818   0.34057   0.32473   1.000
    C26     C    0.46596   0.08115   0.13359   1.000
    C27     C    0.96595   0.08115   0.13359   1.000
    C28     C    0.40087   0.75726   0.37730   1.000
    C29     C    0.90086   0.75726   0.37736   1.000
    C30     C    0.05395   0.92022   0.65540   1.000
    C31     C    0.55395   0.92022   0.65545   1.000
    C32     C    0.47007   0.41520   0.34088   1.000
    C33     C    0.97006   0.41520   0.34088   1.000
    C34     C    0.28373   0.57511   0.36400   1.000
    C35     C    0.78372   0.57511   0.36407   1.000
    O36     O    0.16936   0.82189   0.85038   1.000
    O37     O    0.66935   0.82189   0.85038   1.000
    O38     O    0.10513   0.69789   0.85184   1.000
    O39     O    0.60512   0.69789   0.85184   1.000
    O40     O    0.31856   0.48802   0.17100   1.000
    O41     O    0.81855   0.48802   0.17100   1.000
    O42     O    0.33019   0.65638   0.20141   1.000
    O43     O    0.83018   0.65638   0.20141   1.000
    O44     O    0.17714   0.04980   0.79078   1.000
    O45     O    0.67712   0.04980   0.79078   1.000
    O46     O    0.24641   0.16093   0.82474   1.000
    O47     O    0.74640   0.16093   0.82474   1.000
    O48     O    0.07439   0.96804   0.85574   1.000
    O49     O    0.57438   0.96805   0.85574   1.000
    O50     O    0.50923   0.84045   0.82850   1.000
    O51     O    0.00000   0.84045   0.82856   1.000
    O52     O    0.08102   0.32497   0.64690   1.000
    O53     O    0.58101   0.32497   0.64696   1.000
    O54     O    0.14544   0.20103   0.64838   1.000
    O55     O    0.64543   0.20103   0.64830   1.000
    O56     O    0.43338   0.98750   0.32850   1.000
    O57     O    0.93337   0.98750   0.32850   1.000
    O58     O    0.42212   0.15597   0.29764   1.000
    O59     O    0.92212   0.15597   0.29764   1.000
    O60     O    0.07192   0.55118   0.70860   1.000
    O61     O    0.57191   0.55118   0.70860   1.000
    O62     O    0.50176   0.65938   0.67529   1.000
    O63     O    0.00000   0.65937   0.67500   1.000
    O64     O    0.17593   0.47456   0.64652   1.000
    O65     O    0.67592   0.47456   0.64652   1.000
    O66     O    0.24061   0.34677   0.67441   1.000
    O67     O    0.74060   0.34677   0.67441   1.000
    O68     O    0.33053   0.17813   0.14967   1.000
    O69     O    0.83052   0.17813   0.14967   1.000
    O70     O    0.39478   0.30209   0.14822   1.000
    O71     O    0.89477   0.30209   0.14822   1.000
    O72     O    0.18146   0.51198   0.82851   1.000
    O73     O    0.68144   0.51198   0.82851   1.000
    O74     O    0.16972   0.34365   0.79856   1.000
    O75     O    0.66970   0.34365   0.79856   1.000
    O76     O    0.32237   0.95067   0.20905   1.000
    O77     O    0.82236   0.95067   0.20905   1.000
    O78     O    0.25332   0.83908   0.17527   1.000
    O79     O    0.75331   0.83907   0.17527   1.000
    O80     O    0.42532   0.03185   0.14418   1.000
    O81     O    0.92531   0.03185   0.14418   1.000
    O82     O    0.99056   0.15930   0.17150   1.000
    O83     O    0.49055   0.15930   0.17150   1.000
    O84     O    0.41891   0.67500   0.35302   1.000
    O85     O    0.91890   0.67500   0.35302   1.000
    O86     O    0.35454   0.79909   0.35150   1.000
    O87     O    0.85453   0.79909   0.35152   1.000
    O88     O    0.06656   0.01245   0.67143   1.000
    O89     O    0.56655   0.01245   0.67143   1.000
    O90     O    0.07778   0.84402   0.70246   1.000
    O91     O    0.49818   0.34056   0.32473   1.000
    O92     O    0.32402   0.52541   0.35346   1.000
    O93     O    0.82401   0.52541   0.35346   1.000
    O94     O    0.25939   0.65327   0.32561   1.000
    O95     O    0.75938   0.65327   0.32561   1.000
loop_
    _geom_bond_atom_site_label_1
    _geom_bond_atom_site_label_2
    _geom_bond_distance
    _geom_bond_site_symmetry_2
    _ccdc_geom_bond_type
    C17    O71       1.27065      .   S
    C17    O69       1.27059      .   S
    C16    O70       1.27062      .   S
    C16    O68       1.27061      .   S
    C27    O81       1.26885      .   S
    C27    O82       1.27329      .   S
    C26    O80       1.26882      .   S
    C26    O83       1.27319      .   S
    C2     O40       1.23287      .   S
    C2     O42       1.31829      .   S
    C3     O41       1.23287      .   S
    C3     O43       1.31829      .   S
    C21    O79       1.27445      .   S
    C21    O77       1.26709      .   S
    C20    O78       1.27446      .   S
    C20    O76       1.26709      .   S
    O23    C32       1.26795      .   S
    O24    C33       1.26781      .   S
    O58    C10       1.31861      .   S
    O59    C11       1.31860      .   S
    O25    C33       1.27433      .   S
    O91    C32       1.27416      .   S
    O94    C34       1.27267      .   S
    O95    C35       1.27318      .   S
    O56    C10       1.23451  1_565   S
    O57    C11       1.23451  1_565   S
    O86    C28       1.27007      .   S
    O87    C29       1.27016      .   S
    O84    C28       1.27055      .   S
    O85    C29       1.27100      .   S
    O92    C34       1.26767      .   S
    O93    C35       1.26812      .   S
    C8     O52       1.27053      .   S
    C8     O54       1.27011      .   S
    C9     O53       1.27101      .   S
    C9     O55       1.26994      .   S
    C14    O64       1.26812      .   S
    C14    O66       1.27332      .   S
    C15    O65       1.26812      .   S
    C15    O67       1.27329      .   S
    C30    O88       1.23452  1_565   S
    C30    O90       1.31915      .   S
    C31    O89       1.23436  1_565   S
    C31    O22       1.31870      .   S
    C13    O62       1.27408      .   S
    C13    O61       1.26778      .   S
    C12    O63       1.30094      .   S
    C12    O60       1.26779      .   S
    O44    C4        1.26704      .   S
    O45    C5        1.26705      .   S
    O74    C18       1.31843      .   S
    O75    C19       1.31844      .   S
    O46    C4        1.27449      .   S
    O47    C5        1.27450      .   S
    O50    C7        1.27379      .   S
    O73    C19       1.23427      .   S
    O72    C18       1.23426      .   S
    O51    C6        1.37421      .   S
    O36    C0        1.27067      .   S
    O37    C1        1.27067      .   S
    O39    C1        1.27060      .   S
    O38    C0        1.27060      .   S
    O49    C7        1.26876      .   S
    O48    C6        1.26877      .   S
