# CIF file generated by openbabel 2.4.90, see http://openbabel.sf.net
data_I
_chemical_name_common ''
_cell_length_a 14.528
_cell_length_b 15.81
_cell_length_c 18.955
_cell_angle_alpha 90.014
_cell_angle_beta 90.794
_cell_angle_gamma 90.077
_space_group_name_H-M_alt 'P 1'
_space_group_name_Hall 'P 1'
loop_
    _symmetry_equiv_pos_as_xyz
    x,y,z
loop_
    _atom_site_label
    _atom_site_type_symbol
    _atom_site_fract_x
    _atom_site_fract_y
    _atom_site_fract_z
    _atom_site_occupancy
    Zn0     Zn   0.65693   0.64040   0.03439   1.000
    Zn1     Zn   0.53105   0.93003   0.53981   1.000
    Zn2     Zn   0.34452   0.86297   0.53115   1.000
    Zn3     Zn   0.53108   0.42988   0.96049   1.000
    Zn4     Zn   0.34403   0.36349   0.96577   1.000
    Zn5     Zn   0.46880   0.07360   0.46016   1.000
    Zn6     Zn   0.65552   0.14053   0.46889   1.000
    Zn7     Zn   0.02804   0.07364   0.96063   1.000
    Zn8     Zn   0.84335   0.14034   0.96567   1.000
    Zn9     Zn   0.96806   0.43008   0.46014   1.000
    Zn10    Zn   0.15288   0.36317   0.46877   1.000
    Zn11    Zn   0.96887   0.92990   0.03948   1.000
    Zn12    Zn   0.15583   0.86352   0.03434   1.000
    Zn13    Zn   0.03075   0.57374   0.53987   1.000
    Zn14    Zn   0.84389   0.64005   0.53127   1.000
    H15     H    0.65282   0.49546   0.03483   1.000
    H16     H    0.35016   0.00787   0.53475   1.000
    Zn17    Zn   0.47223   0.57353   0.03946   1.000
    H18     H    0.35047   0.50840   0.96510   1.000
    H19     H    0.64930   0.99579   0.46520   1.000
    H20     H    0.84731   0.99552   0.96517   1.000
    H21     H    0.14891   0.50794   0.46514   1.000
    H22     H    0.14951   0.00841   0.03496   1.000
    H23     H    0.84943   0.49531   0.53486   1.000
    O24     O    0.90293   0.02219   0.99078   1.000
    O25     O    0.59723   0.52217   0.00925   1.000
    O26     O    0.40456   0.98130   0.50906   1.000
    O27     O    0.40555   0.48141   0.99063   1.000
    O28     O    0.59492   0.02236   0.49098   1.000
    O29     O    0.09409   0.48152   0.49084   1.000
    O30     O    0.09446   0.98141   0.00936   1.000
    O31     O    0.90376   0.52205   0.50919   1.000
loop_
    _geom_bond_atom_site_label_1
    _geom_bond_atom_site_label_2
    _geom_bond_distance
    _geom_bond_site_symmetry_2
    _ccdc_geom_bond_type
    O25    H15       1.02749      .   S
    O25    Zn3       1.96917  1_554   S
    O30    H22       1.02245  1_565   S
    O30    Zn7       1.97244  1_564   S
    Zn17   O27       1.97156  1_554   S
    Zn11   O24       1.96946  1_564   S
    Zn9    O31       1.96931      .   S
    Zn5    O26       1.96996  1_545   S
    H21    O29       1.02751      .   S
    H19    O28       1.02523  1_565   S
    O29    Zn13      1.96555      .   S
    O28    Zn1       1.96704  1_545   S
    O26    H16       1.02453  1_565   S
    O31    H23       1.02383      .   S
    H18    O27       1.02323      .   S
    H20    O24       1.02699  1_565   S
    O25    Zn17      2.07791      .   S
    O25    Zn0       2.11112      .   S
    O26    Zn1       2.08529      .   S
    O26    Zn2       2.10756      .   S
    O27    Zn3       2.08536      .   S
    O27    Zn4       2.11663      .   S
    O28    Zn5       2.08072      .   S
    O28    Zn6       2.10874      .   S
    O24    Zn7       2.07776  1_655   S
    O24    Zn8       2.11140      .   S
    O29    Zn9       2.07813  1_455   S
    O29    Zn10      2.10216      .   S
    O30    Zn11      2.08409  1_455   S
    O30    Zn12      2.11797      .   S
    O31    Zn13      2.09181  1_655   S
    O31    Zn14      2.10389      .   S
