# CIF file generated by openbabel 2.4.90, see http://openbabel.sf.net
data_I
_chemical_name_common ''
_cell_length_a 11.671
_cell_length_b 12.279
_cell_length_c 14.179
_cell_angle_alpha 90.002
_cell_angle_beta 127.997
_cell_angle_gamma 89.983
_space_group_name_H-M_alt 'P 1'
_space_group_name_Hall 'P 1'
loop_
    _symmetry_equiv_pos_as_xyz
    x,y,z
loop_
    _atom_site_label
    _atom_site_type_symbol
    _atom_site_fract_x
    _atom_site_fract_y
    _atom_site_fract_z
    _atom_site_occupancy
    C0      C    0.99999   0.99995   0.30000   1.000
    C1      C    0.49997   0.49994   0.70000   1.000
    C2      C    0.84475   0.04650   0.42843   1.000
    C3      C    0.59173   0.02060   0.88297   1.000
    C4      C    0.54514   0.83016   0.11326   1.000
    C5      C    0.75064   0.07849   0.53410   1.000
    C6      C    0.77542   0.06873   0.72222   1.000
    C7      C    0.18296   0.92707   0.90725   1.000
    C8      C    0.17904   0.93227   0.73250   1.000
    C9      C    0.65516   0.54641   0.57165   1.000
    C10     C    0.90807   0.52062   0.11703   1.000
    C11     C    0.95495   0.33018   0.88687   1.000
    C12     C    0.74925   0.57839   0.46590   1.000
    C13     C    0.72448   0.56863   0.27785   1.000
    C14     C    0.31709   0.42704   0.09285   1.000
    C15     C    0.32100   0.43225   0.26759   1.000
    C16     C    0.15517   0.95343   0.57163   1.000
    C17     C    0.40819   0.97929   0.11710   1.000
    C18     C    0.45478   0.16974   0.88681   1.000
    C19     C    0.24928   0.92143   0.46596   1.000
    C20     C    0.22450   0.93118   0.27784   1.000
    C21     C    0.81697   0.07284   0.09280   1.000
    C22     C    0.82089   0.06765   0.26755   1.000
    C23     C    0.34476   0.45353   0.42840   1.000
    C24     C    0.09185   0.47927   0.88303   1.000
    C25     C    0.00000   0.66972   0.11319   1.000
    C26     C    0.25068   0.42153   0.53409   1.000
    C27     C    0.27545   0.43127   0.72221   1.000
    C28     C    0.68283   0.57288   0.90720   1.000
    C29     C    0.67892   0.56770   0.73246   1.000
    C30     C    0.55136   0.01065   0.93435   1.000
    C31     C    0.67568   0.72423   0.04644   1.000
    C32     C    0.74405   0.84464   0.95589   1.000
    C33     C    0.52581   0.90450   0.06326   1.000
    C34     C    0.84861   0.04408   0.61526   1.000
    C35     C    0.96266   0.00000   0.61525   1.000
    C36     C    0.86085   0.03851   0.71000   1.000
    C37     C    0.08850   0.95973   0.82284   1.000
    C38     C    0.66632   0.82524   0.99880   1.000
    C39     C    0.08524   0.96303   0.72353   1.000
    C40     C    0.57951   0.91325   0.99784   1.000
    C41     C    0.94869   0.01421   0.50597   1.000
    C42     C    0.94850   0.51065   0.06568   1.000
    C43     C    0.82426   0.22430   0.95360   1.000
    C44     C    0.75593   0.34467   0.04420   1.000
    C45     C    0.97422   0.40452   0.93684   1.000
    C46     C    0.65130   0.54400   0.38482   1.000
    C47     C    0.53728   0.50630   0.38483   1.000
    C48     C    0.63907   0.53843   0.28100   1.000
    C49     C    0.41153   0.45970   0.17725   1.000
    C50     C    0.83364   0.32528   0.00121   1.000
    C51     C    0.41478   0.46299   0.27656   1.000
    C52     C    0.92039   0.41327   0.00200   1.000
    C53     C    0.55122   0.51417   0.49410   1.000
    C54     C    0.44857   0.98925   0.06572   1.000
    C55     C    0.32425   0.27566   0.95363   1.000
    C56     C    0.25588   0.15525   0.04417   1.000
    C57     C    0.47412   0.09539   0.93681   1.000
    C58     C    0.15131   0.95583   0.38481   1.000
    C59     C    0.03726   0.99357   0.38480   1.000
    C60     C    0.13907   0.96140   0.28107   1.000
    C61     C    0.91143   0.04018   0.17720   1.000
    C62     C    0.33361   0.17466   0.00122   1.000
    C63     C    0.91468   0.03689   0.27653   1.000
    C64     C    0.42042   0.08664   0.00222   1.000
    C65     C    0.05123   0.98572   0.49409   1.000
    C66     C    0.05142   0.48925   0.93437   1.000
    C67     C    0.17567   0.77559   0.04646   1.000
    C68     C    0.24398   0.65523   0.95586   1.000
    C69     C    0.00000   0.59538   0.06321   1.000
    C70     C    0.34863   0.45592   0.61524   1.000
    C71     C    0.46265   0.49363   0.61522   1.000
    C72     C    0.36086   0.46148   0.71897   1.000
    C73     C    0.58840   0.54023   0.82280   1.000
    C74     C    0.16628   0.67462   0.99884   1.000
    C75     C    0.58515   0.53694   0.72349   1.000
    C76     C    0.07953   0.58662   0.99786   1.000
    C77     C    0.44871   0.48577   0.50595   1.000
    C78     C    0.97914   0.99705   0.82208   1.000
    C79     C    0.80701   0.86849   0.91803   1.000
    C80     C    0.67997   0.63950   0.08858   1.000
    C81     C    0.52082   0.49700   0.17800   1.000
    C82     C    0.69296   0.36847   0.08208   1.000
    C83     C    0.81990   0.13956   0.91145   1.000
    C84     C    0.02079   0.00286   0.17798   1.000
    C85     C    0.19291   0.13141   0.08203   1.000
    C86     C    0.31997   0.36040   0.91149   1.000
    C87     C    0.47911   0.50291   0.82205   1.000
    C88     C    0.30695   0.63142   0.91798   1.000
    C89     C    0.18002   0.86033   0.08862   1.000
    O90     O    0.87702   0.36927   0.00161   1.000
    O91     O    0.79479   0.33497   0.02270   1.000
    O92     O    0.82895   0.27479   0.97740   1.000
    O93     O    0.37701   0.13065   0.00172   1.000
    O94     O    0.29475   0.16496   0.02269   1.000
    O95     O    0.32893   0.22516   0.97742   1.000
    O96     O    0.93445   0.46196   0.03384   1.000
    O97     O    0.94731   0.40890   0.96942   1.000
    O98     O    0.43450   0.03794   0.03397   1.000
    O99     O    0.44727   0.09102   0.96951   1.000
    O100    O    0.22440   0.14333   0.06310   1.000
    O101    O    0.72445   0.35657   0.06314   1.000
    O102    O    0.67783   0.68187   0.06751   1.000
    O103    O    0.67100   0.77473   0.02262   1.000
    O104    O    0.17785   0.81796   0.06754   1.000
    O105    O    0.17097   0.72511   0.02265   1.000
    O106    O    0.97425   0.55301   0.06445   1.000
    O107    O    0.00000   0.63255   0.08820   1.000
    O108    O    0.03976   0.59100   0.03053   1.000
    O109    O    0.48719   0.94688   0.06449   1.000
    O110    O    0.53548   0.86733   0.08826   1.000
    O111    O    0.55266   0.90888   0.03055   1.000
    O112    O    0.92828   0.51564   0.09136   1.000
    O113    O    0.42838   0.98427   0.09141   1.000
    O114    O    0.86420   0.05651   0.13500   1.000
    O115    O    0.36431   0.44337   0.13505   1.000
    O116    O    0.96611   0.02152   0.17759   1.000
    O117    O    0.91306   0.03854   0.22686   1.000
    O118    O    0.46617   0.47835   0.17762   1.000
    O119    O    0.41315   0.46134   0.22690   1.000
    O120    O    0.07993   0.98213   0.22952   1.000
    O121    O    0.57995   0.51772   0.22950   1.000
    O122    O    0.86779   0.05227   0.27204   1.000
    O123    O    0.36789   0.44762   0.27207   1.000
    O124    O    0.95734   0.01842   0.28826   1.000
    O125    O    0.47603   0.48465   0.33069   1.000
    O126    O    0.18179   0.94629   0.27945   1.000
    O127    O    0.68178   0.55353   0.27942   1.000
    O128    O    0.64519   0.54121   0.33291   1.000
    O129    O    0.14519   0.95862   0.33294   1.000
    O130    O    0.06953   0.98067   0.29054   1.000
    O131    O    0.01862   0.99676   0.34240   1.000
    O132    O    0.20030   0.93863   0.42538   1.000
    O133    O    0.59429   0.52515   0.38483   1.000
    O134    O    0.70028   0.56120   0.42536   1.000
    O135    O    0.54425   0.51023   0.43946   1.000
    O136    O    0.39673   0.46965   0.46718   1.000
    O137    O    0.89672   0.03035   0.46720   1.000
    O138    O    0.99996   0.99996   0.50003   1.000
    O139    O    0.10320   0.96957   0.53286   1.000
    O140    O    0.49996   0.49997   0.50003   1.000
    O141    O    0.60319   0.53029   0.53287   1.000
    O142    O    0.95568   0.00710   0.56061   1.000
    O143    O    0.29966   0.43872   0.57466   1.000
    O144    O    0.79963   0.06129   0.57468   1.000
    O145    O    0.48131   0.49679   0.65761   1.000
    O146    O    0.35474   0.45870   0.66710   1.000
    O147    O    0.90564   0.02204   0.61525   1.000
    O148    O    0.02395   0.98152   0.66939   1.000
    O149    O    0.85473   0.04129   0.66263   1.000
    O150    O    0.81814   0.05362   0.71611   1.000
    O151    O    0.91999   0.01778   0.76604   1.000
    O152    O    0.31816   0.44638   0.72059   1.000
    O153    O    0.41999   0.48220   0.77051   1.000
    O154    O    0.43041   0.48071   0.70949   1.000
    O155    O    0.63203   0.55232   0.72797   1.000
    O156    O    0.58677   0.53858   0.77314   1.000
    O157    O    0.54256   0.51844   0.71175   1.000
    O158    O    0.13214   0.94765   0.72801   1.000
    O159    O    0.08687   0.96138   0.77318   1.000
    O160    O    0.53375   0.52157   0.82242   1.000
    O161    O    0.03382   0.97839   0.82246   1.000
    O162    O    0.63562   0.55655   0.86500   1.000
    O163    O    0.13573   0.94340   0.86504   1.000
    O164    O    0.57155   0.01563   0.90866   1.000
    O165    O    0.07163   0.48426   0.90870   1.000
    O166    O    0.46445   0.13256   0.91181   1.000
    O167    O    0.96459   0.36735   0.91185   1.000
    O168    O    0.82208   0.18193   0.93253   1.000
    O169    O    0.32211   0.31803   0.93256   1.000
    O170    O    0.27547   0.64333   0.93692   1.000
    O171    O    0.77553   0.85657   0.93696   1.000
    O172    O    0.51274   0.05302   0.93558   1.000
    O173    O    0.56544   0.96195   0.96609   1.000
    O174    O    0.01282   0.44689   0.93560   1.000
    O175    O    0.06547   0.53794   0.96611   1.000
    O176    O    0.20513   0.66492   0.97735   1.000
    O177    O    0.70518   0.83494   0.97735   1.000
    O178    O    0.62292   0.86924   0.99832   1.000
    O179    O    0.12290   0.63062   0.99835   1.000
loop_
    _geom_bond_atom_site_label_1
    _geom_bond_atom_site_label_2
    _geom_bond_distance
    _geom_bond_site_symmetry_2
    _ccdc_geom_bond_type
    C50    O90       0.73813      .   S
    C52    O90       0.73813      .   S
    C50    O91       0.69487      .   S
    C44    O91       0.69487      .   S
    C50    O92       0.69171  1_554   S
    C43    O92       0.69171      .   S
    C62    O93       0.73760      .   S
    C64    O93       0.73760      .   S
    C62    O94       0.69482      .   S
    C56    O94       0.69482      .   S
    C62    O95       0.69185  1_554   S
    C55    O95       0.69185      .   S
    C52    O96       0.70498      .   S
    C42    O96       0.70498      .   S
    C52    O97       0.70258  1_554   S
    C45    O97       0.70258      .   S
    C64    O98       0.70435      .   S
    C54    O98       0.70435  1_565   S
    C64    O99       0.70364  1_554   S
    C57    O99       0.70364      .   S
    C56    O100      0.59158      .   S
    C85    O100      0.59158      .   S
    C44    O101      0.59159      .   S
    C82    O101      0.59159      .   S
    C31    O102      0.59272      .   S
    C80    O102      0.59272      .   S
    C31    O103      0.69200      .   S
    C38    O103      0.69200  1_556   S
    C67    O104      0.59273      .   S
    C89    O104      0.59273      .   S
    C67    O105      0.69172      .   S
    C74    O105      0.69172  1_556   S
    C69    O106      0.60646  1_455   S
    C42    O106      0.60646      .   S
    C69    O107      0.57781      .   S
    C25    O107      0.57781      .   S
    C69    O108      0.83524      .   S
    C76    O108      0.83524  1_556   S
    C33    O109      0.69545      .   S
    C54    O109      0.69545      .   S
    C33    O110      0.54540      .   S
    C4     O110      0.54540      .   S
    C33    O111      0.70370      .   S
    C40    O111      0.70370  1_556   S
    C42    O112      0.54559      .   S
    C10    O112      0.54559      .   S
    C54    O113      0.54556      .   S
    C17    O113      0.54556      .   S
    C21    O114      0.54398      .   S
    C61    O114      0.54398      .   S
    C14    O115      0.54403      .   S
    C49    O115      0.54403      .   S
    C61    O116      0.67481      .   S
    C84    O116      0.67481  1_455   S
    C61    O117      0.69296      .   S
    C63    O117      0.69296      .   S
    C49    O118      0.67465      .   S
    C81    O118      0.67465      .   S
    C49    O119      0.69284      .   S
    C51    O119      0.69284      .   S
    C84    O120      0.67392  1_545   S
    C60    O120      0.67392      .   S
    C81    O121      0.67363      .   S
    C48    O121      0.67363      .   S
    C22    O122      0.54439      .   S
    C63    O122      0.54439      .   S
    C15    O123      0.54440      .   S
    C51    O123      0.54440      .   S
    C63    O124      0.47421      .   S
    C0     O124      0.47421  1_565   S
    C51    O125      0.70384      .   S
    C47    O125      0.70384      .   S
    C20    O126      0.54540      .   S
    C60    O126      0.54540      .   S
    C13    O127      0.54502      .   S
    C48    O127      0.54502      .   S
    C48    O128      0.69522      .   S
    C46    O128      0.69522      .   S
    C60    O129      0.69463      .   S
    C58    O129      0.69463      .   S
    C60    O130      0.93101      .   S
    C0     O130      0.93101  1_655   S
    C59    O131      0.49926      .   S
    C0     O131      0.49926  1_655   S
    C58    O132      0.54537      .   S
    C19    O132      0.54537      .   S
    C46    O133      0.70461      .   S
    C47    O133      0.70461      .   S
    C46    O134      0.54520      .   S
    C12    O134      0.54520      .   S
    C47    O135      0.72901      .   S
    C53    O135      0.72901      .   S
    C23    O136      0.54665      .   S
    C77    O136      0.54665      .   S
    C2     O137      0.54664      .   S
    C41    O137      0.54664      .   S
    C65    O138      0.67652  1_455   S
    C41    O138      0.67652  1_545   S
    C65    O139      0.54664      .   S
    C16    O139      0.54664      .   S
    C53    O140      0.67622      .   S
    C77    O140      0.67622      .   S
    C53    O141      0.54665      .   S
    C9     O141      0.54665      .   S
    C41    O142      0.73261      .   S
    C35    O142      0.73261      .   S
    C26    O143      0.54540      .   S
    C70    O143      0.54540      .   S
    C5     O144      0.54540      .   S
    C34    O144      0.54540      .   S
    C71    O145      0.49903      .   S
    C1     O145      0.49903      .   S
    C70    O146      0.69459      .   S
    C72    O146      0.69459      .   S
    C35    O147      0.71843      .   S
    C34    O147      0.71843      .   S
    C35    O148      0.69015  1_645   S
    C39    O148      0.69015      .   S
    C34    O149      0.63115      .   S
    C36    O149      0.63115      .   S
    C36    O150      0.58614      .   S
    C6     O150      0.58614      .   S
    C36    O151      0.70515      .   S
    C78    O151      0.70515  1_565   S
    C72    O152      0.54540      .   S
    C27    O152      0.54540      .   S
    C72    O153      0.67389      .   S
    C87    O153      0.67389      .   S
    C72    O154      0.93131      .   S
    C1     O154      0.93131      .   S
    C75    O155      0.54437      .   S
    C29    O155      0.54437      .   S
    C75    O156      0.69284      .   S
    C73    O156      0.69284      .   S
    C75    O157      0.47387      .   S
    C1     O157      0.47387      .   S
    C39    O158      0.54441      .   S
    C8     O158      0.54441      .   S
    C39    O159      0.69282      .   S
    C37    O159      0.69282      .   S
    C87    O160      0.67464      .   S
    C73    O160      0.67464      .   S
    C78    O161      0.67489  1_655   S
    C37    O161      0.67489      .   S
    C73    O162      0.54402      .   S
    C28    O162      0.54402      .   S
    C37    O163      0.54402      .   S
    C7     O163      0.54402      .   S
    C3     O164      0.54555      .   S
    C30    O164      0.54555      .   S
    C24    O165      0.54554      .   S
    C66    O165      0.54554      .   S
    C18    O166      0.54540      .   S
    C57    O166      0.54540      .   S
    C11    O167      0.54539      .   S
    C45    O167      0.54539      .   S
    C83    O168      0.59271      .   S
    C43    O168      0.59271      .   S
    C86    O169      0.59273      .   S
    C55    O169      0.59273      .   S
    C88    O170      0.59159      .   S
    C68    O170      0.59159      .   S
    C79    O171      0.59156      .   S
    C32    O171      0.59156      .   S
    C30    O172      0.69545      .   S
    C57    O172      0.69545      .   S
    C30    O173      0.70432  1_545   S
    C40    O173      0.70432      .   S
    C66    O174      0.69546      .   S
    C45    O174      0.69546  1_655   S
    C66    O175      0.70430      .   S
    C76    O175      0.70430      .   S
    C68    O176      0.69479      .   S
    C74    O176      0.69479      .   S
    C32    O177      0.69457      .   S
    C38    O177      0.69457      .   S
    C40    O178      0.73771      .   S
    C38    O178      0.73771      .   S
    C76    O179      0.73758      .   S
    C74    O179      0.73758      .   S
