# CIF file generated by openbabel 2.4.90, see http://openbabel.sf.net
data_I
_chemical_name_common ''
_cell_length_a 17.924
_cell_length_b 17.979
_cell_length_c 13.775
_cell_angle_alpha 73.331
_cell_angle_beta 71.911
_cell_angle_gamma 81.632
_space_group_name_H-M_alt 'P 1'
_space_group_name_Hall 'P 1'
loop_
    _symmetry_equiv_pos_as_xyz
    x,y,z
loop_
    _atom_site_label
    _atom_site_type_symbol
    _atom_site_fract_x
    _atom_site_fract_y
    _atom_site_fract_z
    _atom_site_occupancy
    Zn0     Zn   0.25335   0.57811   0.15176   1.000
    Zn1     Zn   0.75335   0.07812   0.15176   1.000
    Zn2     Zn   0.75335   0.57811   0.15176   1.000
    Zn3     Zn   0.19143   0.05334   0.37640   1.000
    Zn4     Zn   0.19143   0.55333   0.37640   1.000
    Zn5     Zn   0.69143   0.05334   0.37640   1.000
    Zn6     Zn   0.69142   0.55333   0.37640   1.000
    Zn7     Zn   0.25335   0.07812   0.15176   1.000
    C8      C    0.36162   0.05609   0.29438   1.000
    C9      C    0.36162   0.55609   0.29438   1.000
    C10     C    0.86161   0.05610   0.29438   1.000
    C11     C    0.86161   0.55608   0.29438   1.000
    C12     C    0.08494   0.07771   0.22800   1.000
    C13     C    0.08494   0.57769   0.22850   1.000
    C14     C    0.58493   0.07770   0.22850   1.000
    C15     C    0.58493   0.57770   0.22850   1.000
    C16     C    0.22262   0.21664   0.23445   1.000
    C17     C    0.22262   0.71663   0.23445   1.000
    C18     C    0.72261   0.21664   0.23445   1.000
    C19     C    0.72261   0.71663   0.23445   1.000
    C20     C    0.22070   0.41628   0.29066   1.000
    C21     C    0.22071   0.91627   0.29066   1.000
    C22     C    0.72071   0.41628   0.29066   1.000
    C23     C    0.72069   0.91627   0.29060   1.000
    O24     O    0.30571   0.05287   0.37975   1.000
    O25     O    0.30570   0.55285   0.37975   1.000
    O26     O    0.80570   0.05287   0.37975   1.000
    O27     O    0.80570   0.55285   0.37975   1.000
    O28     O    0.35419   0.05956   0.20442   1.000
    O29     O    0.35418   0.55955   0.20442   1.000
    O30     O    0.85418   0.05956   0.20442   1.000
    O31     O    0.85418   0.55955   0.20442   1.000
    O32     O    0.09370   0.05953   0.32070   1.000
    O33     O    0.09370   0.55952   0.32078   1.000
    O34     O    0.59369   0.05953   0.32078   1.000
    O35     O    0.59369   0.55952   0.32078   1.000
    O36     O    0.13939   0.09573   0.14154   1.000
    O37     O    0.13939   0.59572   0.14154   1.000
    O38     O    0.63939   0.09573   0.14154   1.000
    O39     O    0.63938   0.59572   0.14154   1.000
    O40     O    0.19054   0.17447   0.32567   1.000
    O41     O    0.19054   0.67446   0.32567   1.000
    O42     O    0.69053   0.17447   0.32567   1.000
    O43     O    0.69053   0.67446   0.32567   1.000
    O44     O    0.25302   0.19347   0.15001   1.000
    O45     O    0.25302   0.69346   0.15001   1.000
    O46     O    0.75301   0.19347   0.15001   1.000
    O47     O    0.75301   0.69346   0.15001   1.000
    O48     O    0.20664   0.43742   0.37590   1.000
    O49     O    0.20663   0.93741   0.37598   1.000
    O50     O    0.70663   0.43742   0.37598   1.000
    O51     O    0.70663   0.93741   0.37598   1.000
    O52     O    0.23853   0.46034   0.19707   1.000
    O53     O    0.23853   0.96033   0.19707   1.000
    O54     O    0.73852   0.46034   0.19707   1.000
    O55     O    0.73852   0.96033   0.19707   1.000
loop_
    _geom_bond_atom_site_label_1
    _geom_bond_atom_site_label_2
    _geom_bond_distance
    _geom_bond_site_symmetry_2
    _ccdc_geom_bond_type
    O36    Zn7       2.06328      .   S
    O36    C12       1.27471      .   S
    O37    Zn0       2.06330      .   S
    O37    C13       1.27901      .   S
    O38    Zn1       2.06330      .   S
    O38    C14       1.27902      .   S
    O39    Zn2       2.06330      .   S
    O39    C15       1.27902      .   S
    O44    Zn7       2.06630      .   S
    O44    C16       1.28127      .   S
    O45    Zn0       2.06630      .   S
    O45    C17       1.28126      .   S
    O46    Zn1       2.06630      .   S
    O46    C18       1.28126      .   S
    O47    Zn2       2.06630      .   S
    O47    C19       1.28127      .   S
    Zn0    O52       2.06053      .   S
    Zn0    O29       2.09844      .   S
    Zn1    O55       2.06095  1_545   S
    Zn1    O30       2.09844      .   S
    Zn2    O54       2.06053      .   S
    Zn2    O31       2.09844      .   S
    Zn7    O53       2.06094  1_545   S
    Zn7    O28       2.09845      .   S
    O54    C22       1.27425      .   S
    O53    C21       1.27425      .   S
    O52    C20       1.27425      .   S
    O55    C23       1.27362      .   S
    O28    C8        1.27005      .   S
    O29    C9        1.27008      .   S
    O30    C10       1.27008      .   S
    O31    C11       1.27005      .   S
    C12    O32       1.27757      .   S
    C13    O33       1.27199      .   S
    C14    O34       1.27199      .   S
    C15    O35       1.27199      .   S
    C19    O43       1.27122      .   S
    C18    O42       1.27123      .   S
    C17    O41       1.27123      .   S
    C16    O40       1.27122      .   S
    C23    O51       1.27891      .   S
    C20    O48       1.27709      .   S
    C22    O50       1.27812      .   S
    C21    O49       1.27812      .   S
    C11    O27       1.27929      .   S
    C10    O26       1.27928      .   S
    C9     O25       1.27929      .   S
    C8     O24       1.27930      .   S
    O32    Zn3       2.09728      .   S
    O35    Zn6       2.09662      .   S
    O33    Zn4       2.09662      .   S
    O34    Zn5       2.09662      .   S
    O40    Zn3       2.08696      .   S
    O41    Zn4       2.08696      .   S
    O42    Zn5       2.08696      .   S
    O43    Zn6       2.08696      .   S
    O48    Zn4       2.06371      .   S
    O49    Zn3       2.06387  1_565   S
    O51    Zn5       2.06387  1_565   S
    O50    Zn6       2.06344      .   S
    Zn3    O24       2.06179      .   S
    Zn4    O25       2.06177      .   S
    Zn5    O26       2.06179      .   S
    Zn6    O27       2.06179      .   S
    Zn7    Zn3       2.86810      .   S
    Zn0    Zn4       2.86810      .   S
    Zn1    Zn5       2.86810      .   S
    Zn2    Zn6       2.86810      .   S
