# CIF file generated by openbabel 2.4.90, see http://openbabel.sf.net
data_I
_chemical_name_common ''
_cell_length_a 17.293
_cell_length_b 13.056
_cell_length_c 15.041
_cell_angle_alpha 64.208
_cell_angle_beta 83.189
_cell_angle_gamma 75.681
_space_group_name_H-M_alt 'P 1'
_space_group_name_Hall 'P 1'
loop_
    _symmetry_equiv_pos_as_xyz
    x,y,z
loop_
    _atom_site_label
    _atom_site_type_symbol
    _atom_site_fract_x
    _atom_site_fract_y
    _atom_site_fract_z
    _atom_site_occupancy
    N0      N    0.27277   0.99840   0.45902   1.000
    N1      N    0.52257   0.45853   0.54114   1.000
    N2      N    0.02256   0.45853   0.54136   1.000
    N3      N    0.52880   0.54059   0.98347   1.000
    N4      N    0.02880   0.54059   0.98340   1.000
    N5      N    0.27903   0.52330   0.01690   1.000
    N6      N    0.77904   0.52330   0.01689   1.000
    N7      N    0.77277   0.99840   0.45905   1.000
    Zr8     Zr   0.89704   0.09772   0.81991   1.000
    O9      O    0.93328   0.21469   0.87329   1.000
    O10     O    0.00384   0.06844   0.72157   1.000
    O11     O    0.78990   0.19850   0.74174   1.000
    O12     O    0.86418   0.93361   0.87897   1.000
    Zr13    Zr   0.39703   0.09772   0.81991   1.000
    O14     O    0.36417   0.93361   0.87897   1.000
    O15     O    0.50384   0.06844   0.72158   1.000
    O16     O    0.43327   0.21469   0.87356   1.000
    O17     O    0.28989   0.19850   0.74180   1.000
    Zr18    Zr   0.65320   0.91080   0.18159   1.000
    O19     O    0.54439   0.93491   0.25948   1.000
    O20     O    0.61860   0.80784   0.12213   1.000
    O21     O    0.75839   0.78536   0.27928   1.000
    O22     O    0.68766   0.83329   0.12755   1.000
    Zr23    Zr   0.15319   0.91080   0.18159   1.000
    O24     O    0.18764   0.83329   0.12755   1.000
    O25     O    0.11858   0.80784   0.12211   1.000
    O26     O    0.04438   0.93491   0.25949   1.000
    O27     O    0.25838   0.78536   0.27922   1.000
loop_
    _geom_bond_atom_site_label_1
    _geom_bond_atom_site_label_2
    _geom_bond_distance
    _geom_bond_site_symmetry_2
    _ccdc_geom_bond_type
    Zr8    O9        2.24263      .   S
    N4     O9        5.81654  1_455   S
    Zr8    O10       2.28903  1_655   S
    N0     O10       5.89420  1_565   S
    Zr8    O11       2.12391      .   S
    N1     O11       5.35102      .   S
    Zr8    O12       2.12817  1_545   S
    N6     O12       5.35494  1_554   S
    Zr13   O14       2.12816  1_545   S
    N5     O14       5.35493  1_554   S
    Zr13   O15       2.28906      .   S
    N7     O15       5.89412  1_565   S
    Zr13   O16       2.24544      .   S
    N3     O16       5.81482      .   S
    Zr13   O17       2.12354      .   S
    N2     O17       5.34992      .   S
    Zr18   O19       2.12533      .   S
    N0     O19       5.35293      .   S
    Zr18   O20       2.12981      .   S
    N3     O20       5.35877  1_556   S
    Zr18   O21       2.28394      .   S
    N2     O21       5.88296  1_455   S
    Zr18   O22       1.53057      .   S
    N6     O22       4.87053      .   S
    Zr23   O24       1.53055      .   S
    N5     O24       4.87052      .   S
    Zr23   O25       2.12998      .   S
    N4     O25       5.35931  1_556   S
    Zr23   O26       2.12533      .   S
    N7     O26       5.35291  1_655   S
    Zr23   O27       2.28356      .   S
    N1     O27       5.88202      .   S
