# CIF file generated by openbabel 2.4.90, see http://openbabel.sf.net
data_I
_chemical_name_common ''
_cell_length_a 15.743
_cell_length_b 15.75
_cell_length_c 20.005
_cell_angle_alpha 90.001
_cell_angle_beta 90
_cell_angle_gamma 90.008
_space_group_name_H-M_alt 'P 1'
_space_group_name_Hall 'P 1'
loop_
    _symmetry_equiv_pos_as_xyz
    x,y,z
loop_
    _atom_site_label
    _atom_site_type_symbol
    _atom_site_fract_x
    _atom_site_fract_y
    _atom_site_fract_z
    _atom_site_occupancy
    N0      N    0.43141   0.43031   0.67516   1.000
    N1      N    0.06647   0.42993   0.17516   1.000
    N2      N    0.06665   0.06646   0.67514   1.000
    N3      N    0.93127   0.56640   0.82471   1.000
    N4      N    0.56661   0.56643   0.32482   1.000
    N5      N    0.56647   0.92984   0.82479   1.000
    N6      N    0.93122   0.93019   0.32479   1.000
    N7      N    0.43149   0.06638   0.17524   1.000
    Zr8     Zr   0.74843   0.24812   0.49995   1.000
    O9      O    0.70322   0.34095   0.44925   1.000
    O10     O    0.79390   0.15543   0.44920   1.000
    O11     O    0.84124   0.20301   0.55069   1.000
    O12     O    0.65598   0.29332   0.55073   1.000
    Zr13    Zr   0.74865   0.24808   0.99992   1.000
    O14     O    0.79414   0.34089   0.94917   1.000
    O15     O    0.70338   0.15527   0.94919   1.000
    O16     O    0.65618   0.20302   0.05074   1.000
    O17     O    0.84135   0.29321   0.05069   1.000
    Zr18    Zr   0.24854   0.74808   0.55001   1.000
    O19     O    0.34129   0.70298   0.47427   1.000
    O20     O    0.15599   0.79326   0.47423   1.000
    Zr21    Zr   0.08344   0.91516   0.99996   1.000
    O22     O    0.07582   0.96279   0.90926   1.000
    O23     O    0.04410   0.81326   0.95146   1.000
    O24     O    0.03496   0.92242   0.09072   1.000
    O25     O    0.18523   0.95411   0.04837   1.000
    Zr26    Zr   0.41500   0.58124   0.99999   1.000
    O27     O    0.46263   0.57410   0.09072   1.000
    O28     O    0.31310   0.54223   0.04840   1.000
    O29     O    0.45410   0.68312   0.95153   1.000
    O30     O    0.42259   0.53376   0.90928   1.000
    Zr31    Zr   0.58231   0.08127   0.50004   1.000
    O32     O    0.57498   0.03325   0.59072   1.000
    O33     O    0.68433   0.04233   0.45158   1.000
    O34     O    0.53495   0.07408   0.40931   1.000
    O35     O    0.54336   0.18325   0.54849   1.000
    Zr36    Zr   0.91475   0.41497   0.50003   1.000
    O37     O    0.95397   0.31311   0.54847   1.000
    O38     O    0.81294   0.45401   0.45163   1.000
    O39     O    0.92229   0.46261   0.59069   1.000
    O40     O    0.96235   0.42219   0.40926   1.000
    Zr41    Zr   0.91499   0.08125   0.99999   1.000
    O42     O    0.96264   0.07412   0.90925   1.000
    O43     O    0.92254   0.03333   0.09069   1.000
    O44     O    0.95410   0.18315   0.04844   1.000
    O45     O    0.81309   0.04221   0.95157   1.000
    Zr46    Zr   0.41478   0.91495   0.49994   1.000
    O47     O    0.31297   0.95401   0.54834   1.000
    O48     O    0.45398   0.81309   0.45149   1.000
    O49     O    0.42237   0.96259   0.40927   1.000
    O50     O    0.46237   0.92215   0.59070   1.000
    Zr51    Zr   0.08228   0.58125   0.49993   1.000
    O52     O    0.03424   0.57407   0.59066   1.000
    O53     O    0.07496   0.53363   0.40924   1.000
    O54     O    0.04330   0.68321   0.45147   1.000
    O55     O    0.18436   0.54235   0.54839   1.000
    O56     O    0.20330   0.84093   0.58196   1.000
    O57     O    0.29402   0.65543   0.58201   1.000
loop_
    _geom_bond_atom_site_label_1
    _geom_bond_atom_site_label_2
    _geom_bond_distance
    _geom_bond_site_symmetry_2
    _ccdc_geom_bond_type
    Zr8    O9        1.91657      .   S
    N4     O9        4.84100      .   S
    Zr8    O10       1.91703      .   S
    N6     O10       4.84293  1_565   S
    Zr8    O11       1.91581      .   S
    N2     O11       4.83919  1_455   S
    Zr8    O12       1.91240      .   S
    N0     O12       4.83245      .   S
    Zr13   O14       1.91839      .   S
    N3     O14       4.84482      .   S
    Zr13   O15       1.91671      .   S
    N5     O15       4.84179  1_565   S
    Zr13   O16       1.91203  1_556   S
    N7     O16       4.83185      .   S
    Zr13   O17       1.91474  1_556   S
    N1     O17       4.83695  1_455   S
    Zr18   O19       2.22087      .   S
    N4     O19       5.11361      .   S
    Zr18   O20       2.21990      .   S
    N6     O20       5.10996  1_655   S
    Zr21   O22       1.96703      .   S
    N2     O22       4.96229  1_545   S
    Zr21   O23       1.97498      .   S
    N3     O23       4.96983  1_655   S
    Zr21   O24       1.97293  1_556   S
    N6     O24       4.96069  1_655   S
    Zr21   O25       1.97028  1_556   S
    N7     O25       4.95934  1_545   S
    Zr26   O27       1.96715  1_556   S
    N4     O27       4.96244      .   S
    Zr26   O28       1.97193  1_556   S
    N1     O28       4.96305      .   S
    Zr26   O29       1.97319      .   S
    N5     O29       4.96547      .   S
    Zr26   O30       1.96637      .   S
    N0     O30       4.96075      .   S
    Zr31   O32       1.96880      .   S
    N5     O32       4.95960  1_565   S
    Zr31   O33       1.97385      .   S
    N6     O33       4.96605  1_565   S
    Zr31   O34       1.96545      .   S
    N7     O34       4.95921      .   S
    Zr31   O35       1.97377      .   S
    N0     O35       4.96685      .   S
    Zr36   O37       1.97334      .   S
    N2     O37       4.96602  1_455   S
    Zr36   O38       1.97108      .   S
    N4     O38       4.96096      .   S
    Zr36   O39       1.96642      .   S
    N3     O39       4.96073      .   S
    Zr36   O40       1.96756      .   S
    N1     O40       4.96331  1_455   S
    Zr41   O42       1.96736      .   S
    N2     O42       4.96288  1_455   S
    Zr41   O43       1.96880  1_556   S
    N6     O43       4.95880  1_565   S
    Zr41   O44       1.97334  1_556   S
    N1     O44       4.96604  1_455   S
    Zr41   O45       1.97215      .   S
    N5     O45       4.96353  1_565   S
    Zr46   O47       1.97105      .   S
    N2     O47       4.96092  1_545   S
    Zr46   O48       1.97330      .   S
    N4     O48       4.96595      .   S
    Zr46   O49       1.96657      .   S
    N7     O49       4.96098  1_545   S
    Zr46   O50       1.96741      .   S
    N5     O50       4.96300      .   S
    Zr51   O52       1.96950      .   S
    N3     O52       4.95649  1_655   S
    Zr51   O53       1.96647      .   S
    N1     O53       4.96121      .   S
    Zr51   O54       1.97370      .   S
    N6     O54       4.96682  1_655   S
    Zr51   O55       1.97433      .   S
    N0     O55       4.96736      .   S
    N2     O56       4.55209  1_545   S
    Zr18   O56       1.74777      .   S
    Zr18   O57       1.74704      .   S
    N0     O57       4.55249      .   S
