# CIF file generated by openbabel 2.4.90, see http://openbabel.sf.net
data_I
_chemical_name_common ''
_cell_length_a 15.411
_cell_length_b 15.42
_cell_length_c 15.411
_cell_angle_alpha 60.015
_cell_angle_beta 60.035
_cell_angle_gamma 60.048
_space_group_name_H-M_alt 'P 1'
_space_group_name_Hall 'P 1'
loop_
    _symmetry_equiv_pos_as_xyz
    x,y,z
loop_
    _atom_site_label
    _atom_site_type_symbol
    _atom_site_fract_x
    _atom_site_fract_y
    _atom_site_fract_z
    _atom_site_occupancy
    Zr0     Zr   0.15415   0.15425   0.53762   1.000
    Zr1     Zr   0.15414   0.15419   0.15404   1.000
    Zr2     Zr   0.53755   0.15428   0.15411   1.000
    Zr3     Zr   0.15428   0.53739   0.15422   1.000
    Zr4     Zr   0.84588   0.84575   0.46240   1.000
    Zr5     Zr   0.84588   0.84581   0.84597   1.000
    Zr6     Zr   0.84575   0.46261   0.84580   1.000
    Zr7     Zr   0.46248   0.84572   0.84591   1.000
    Zr8     Zr   0.25003   0.24999   0.25002   1.000
    Zr9     Zr   0.75000   0.75001   0.75000   1.000
    N10     N    0.47802   0.99999   0.99999   1.000
    O11     O    0.35618   0.06701   0.06694   1.000
    O12     O    0.48784   0.06704   0.06698   1.000
    O13     O    0.62185   0.93298   0.93305   1.000
    O14     O    0.38946   0.09956   0.09954   1.000
    O15     O    0.49019   0.93295   0.93302   1.000
    O16     O    0.58857   0.90043   0.90045   1.000
    N17     N    0.00001   0.50000   1.00000   1.000
    O18     O    0.06705   0.49875   0.06705   1.000
    O19     O    0.06702   0.36717   0.06693   1.000
    O20     O    0.09959   0.40041   0.09958   1.000
    O21     O    0.93297   0.50125   0.93295   1.000
    O22     O    0.90043   0.59959   0.90043   1.000
    O23     O    0.93300   0.63283   0.93305   1.000
    N24     N    0.00001   1.00000   0.50001   1.000
    O25     O    0.06703   0.06700   0.36713   1.000
    O26     O    0.06701   0.06705   0.49885   1.000
    O27     O    0.93299   0.93300   0.63288   1.000
    O28     O    0.09959   0.09957   0.40044   1.000
    O29     O    0.93302   0.93295   0.50117   1.000
    O30     O    0.90043   0.90043   0.59958   1.000
    N31     N    0.50001   0.50000   0.99999   1.000
    O32     O    0.40045   0.40041   0.09958   1.000
    O33     O    0.36722   0.49875   0.06706   1.000
    O34     O    0.49883   0.36720   0.06699   1.000
    O35     O    0.59957   0.59959   0.90041   1.000
    O36     O    0.63281   0.50125   0.93294   1.000
    O37     O    0.50119   0.63280   0.93300   1.000
    N38     N    0.50645   0.00000   0.48667   1.000
    O39     O    0.63607   0.93293   0.49450   1.000
    O40     O    0.50204   0.06705   0.36049   1.000
    O41     O    0.40366   0.09960   0.39377   1.000
    O42     O    0.50443   0.93295   0.62619   1.000
    O43     O    0.37039   0.06707   0.49218   1.000
    O44     O    0.60281   0.90040   0.59291   1.000
    N45     N    0.00001   0.50000   0.50000   1.000
    O46     O    0.93296   0.50123   0.63281   1.000
    O47     O    0.09960   0.40043   0.40047   1.000
    O48     O    0.06701   0.36720   0.49888   1.000
    O49     O    0.93301   0.63280   0.50113   1.000
    O50     O    0.90042   0.59957   0.59955   1.000
    O51     O    0.06707   0.49877   0.36718   1.000
loop_
    _geom_bond_atom_site_label_1
    _geom_bond_atom_site_label_2
    _geom_bond_distance
    _geom_bond_site_symmetry_2
    _ccdc_geom_bond_type
    N10    O11       1.68855  1_566   S
    Zr1    O11       2.59854      .   S
    N10    O12       1.88070  1_566   S
    Zr2    O12       2.83932      .   S
    N10    O13       1.88133      .   S
    Zr5    O13       2.84047      .   S
    N10    O14       2.17822  1_566   S
    Zr8    O14       3.28594      .   S
    N10    O15       1.68770      .   S
    Zr7    O15       2.59706      .   S
    N10    O16       2.17807      .   S
    Zr9    O16       3.28576      .   S
    N17    O18       1.77833  1_556   S
    Zr3    O18       2.71485      .   S
    N17    O19       1.77930  1_556   S
    Zr1    O19       2.71684      .   S
    N17    O20       2.17080  1_556   S
    Zr8    O20       3.27942      .   S
    N17    O21       1.77816  1_455   S
    Zr6    O21       2.71463      .   S
    N17    O22       2.17066  1_455   S
    Zr9    O22       3.27922      .   S
    N17    O23       1.77932  1_455   S
    Zr5    O23       2.71676      .   S
    N24    O25       1.77919  1_565   S
    Zr1    O25       2.71653      .   S
    N24    O26       1.77887  1_565   S
    Zr0    O26       2.71593      .   S
    N24    O27       1.77917  1_455   S
    Zr5    O27       2.71646      .   S
    N24    O28       2.17086  1_565   S
    Zr8    O28       3.27952      .   S
    N24    O29       1.77882  1_455   S
    Zr4    O29       2.71583      .   S
    N24    O30       2.17082  1_455   S
    Zr9    O30       3.27948      .   S
    N31    O32       2.17080  1_556   S
    Zr8    O32       3.27942      .   S
    N31    O33       1.77856  1_556   S
    Zr3    O33       2.71522      .   S
    N31    O34       1.77898  1_556   S
    Zr2    O34       2.71600      .   S
    N31    O35       2.17081      .   S
    Zr9    O35       3.27942      .   S
    N31    O36       1.77857      .   S
    Zr6    O36       2.71523      .   S
    N31    O37       1.77896      .   S
    Zr7    O37       2.71598      .   S
    N38    O39       1.76852  1_545   S
    Zr4    O39       2.68933      .   S
    N38    O40       1.70515      .   S
    Zr2    O40       2.63522      .   S
    N38    O41       2.13461      .   S
    Zr8    O41       3.24234      .   S
    N38    O42       1.85371  1_545   S
    Zr7    O42       2.79671      .   S
    N38    O43       1.79392      .   S
    Zr0    O43       2.74580      .   S
    N38    O44       2.20958  1_545   S
    Zr9    O44       3.31742      .   S
    N45    O46       1.77871  1_455   S
    Zr6    O46       2.71542      .   S
    N45    O47       2.17148      .   S
    Zr8    O47       3.28143      .   S
    N45    O48       1.77938      .   S
    Zr0    O48       2.71670      .   S
    N45    O49       1.77941  1_455   S
    Zr4    O49       2.71673      .   S
    N45    O50       2.17158  1_455   S
    Zr9    O50       3.28152      .   S
    N45    O51       1.77886      .   S
    Zr3    O51       2.71503      .   S
