# CIF file generated by openbabel 2.4.90, see http://openbabel.sf.net
data_I
_chemical_name_common ''
_cell_length_a 7.6955
_cell_length_b 14.667
_cell_length_c 15.813
_cell_angle_alpha 90.02
_cell_angle_beta 90.05
_cell_angle_gamma 92.045
_space_group_name_H-M_alt 'P 1'
_space_group_name_Hall 'P 1'
loop_
    _symmetry_equiv_pos_as_xyz
    x,y,z
loop_
    _atom_site_label
    _atom_site_type_symbol
    _atom_site_fract_x
    _atom_site_fract_y
    _atom_site_fract_z
    _atom_site_occupancy
    Zr0     Zr   0.75431   0.06745   0.06106   1.000
    Zr1     Zr   0.74498   0.43267   0.56092   1.000
    Zr2     Zr   0.24567   0.93255   0.93892   1.000
    Zr3     Zr   0.25501   0.56733   0.43906   1.000
    N4      N    0.81957   0.89044   0.55564   1.000
    O5      O    0.62916   0.73238   0.50429   1.000
    O6      O    0.95132   0.73741   0.50890   1.000
    N7      N    0.68112   0.60980   0.05590   1.000
    O8      O    0.87168   0.76780   0.00442   1.000
    O9      O    0.54955   0.76273   0.00902   1.000
    N10     N    0.18041   0.10947   0.44434   1.000
    O11     O    0.37083   0.26757   0.49569   1.000
    O12     O    0.04867   0.26254   0.49109   1.000
    N13     N    0.31888   0.39021   0.94344   1.000
    O14     O    0.12831   0.23220   0.99525   1.000
    O15     O    0.45044   0.23727   0.98699   1.000
    O16     O    0.51176   0.57912   0.21504   1.000
    O17     O    0.21226   0.29872   0.46292   1.000
    O18     O    0.71277   0.79899   0.03725   1.000
    O19     O    0.01110   0.07893   0.28515   1.000
    O20     O    0.48823   0.42088   0.78462   1.000
    O21     O    0.78773   0.70124   0.53706   1.000
    O22     O    0.28722   0.20101   0.96058   1.000
    O23     O    0.98888   0.92103   0.71483   1.000
loop_
    _geom_bond_atom_site_label_1
    _geom_bond_atom_site_label_2
    _geom_bond_distance
    _geom_bond_site_symmetry_2
    _ccdc_geom_bond_type
    N4     O5        2.81691      .   S
    Zr3    O5        3.83544      .   S
    N4     O6        2.60278      .   S
    Zr3    O6        3.65009  1_455   S
    N7     O8        2.81859      .   S
    Zr2    O8        3.83478  1_456   S
    N7     O9        2.60165      .   S
    Zr2    O9        3.64876  1_556   S
    N10    O11       2.81744      .   S
    Zr1    O11       3.83582      .   S
    N10    O12       2.60334      .   S
    Zr1    O12       3.65053  1_655   S
    N13    O14       2.82010      .   S
    Zr0    O14       3.83619  1_654   S
    N13    O15       2.58708      .   S
    Zr0    O15       3.66830  1_554   S
    Zr3    O16       4.05852      .   S
    N7     O16       2.86325      .   S
    Zr3    O17       3.95981      .   S
    N10    O17       2.79319      .   S
    Zr0    O18       3.95689  1_545   S
    N7     O18       2.79267      .   S
    Zr0    O19       4.05634  1_655   S
    N10    O19       2.86121      .   S
    Zr1    O20       4.05408      .   S
    N13    O20       2.85880      .   S
    Zr1    O21       3.95919      .   S
    N4     O21       2.79255      .   S
    N13    O22       2.79026      .   S
    Zr2    O22       3.95380  1_565   S
    Zr2    O23       4.05636  1_455   S
    N4     O23       2.86129      .   S
