# CIF file generated by openbabel 2.4.90, see http://openbabel.sf.net
data_I
_chemical_name_common ''
_cell_length_a 8.746
_cell_length_b 12.063
_cell_length_c 24.0786
_cell_angle_alpha 85.582
_cell_angle_beta 79.8119
_cell_angle_gamma 89.886
_space_group_name_H-M_alt 'P 1'
_space_group_name_Hall 'P 1'
loop_
    _symmetry_equiv_pos_as_xyz
    x,y,z
loop_
    _atom_site_label
    _atom_site_type_symbol
    _atom_site_fract_x
    _atom_site_fract_y
    _atom_site_fract_z
    _atom_site_occupancy
    Lv0     Lv   0.49682   0.00209   0.49975   1.000
    Lv1     Lv   0.91122   0.22112   0.71049   1.000
    Lv2     Lv   0.49628   0.00157   0.00007   1.000
    Lv3     Lv   0.99681   0.50136   0.50002   1.000
    Lv4     Lv   0.49632   0.50145   0.00005   1.000
    Lv5     Lv   0.08226   0.78296   0.28946   1.000
    Lv6     Lv   0.38974   0.72314   0.71099   1.000
    Lv7     Lv   0.60332   0.27963   0.28893   1.000
