# CIF file generated by openbabel 2.4.90, see http://openbabel.sf.net
data_I
_chemical_name_common ''
_cell_length_a 13.959
_cell_length_b 14.282
_cell_length_c 14.294
_cell_angle_alpha 97.176
_cell_angle_beta 106.298
_cell_angle_gamma 106.781
_space_group_name_H-M_alt 'P 1'
_space_group_name_Hall 'P 1'
loop_
    _symmetry_equiv_pos_as_xyz
    x,y,z
loop_
    _atom_site_label
    _atom_site_type_symbol
    _atom_site_fract_x
    _atom_site_fract_y
    _atom_site_fract_z
    _atom_site_occupancy
    Zn0     Zn   0.86114   0.37487   0.66216   1.000
    Zn1     Zn   0.36045   0.66238   0.37428   1.000
    Zn2     Zn   0.13887   0.62513   0.33783   1.000
    Zn3     Zn   0.63956   0.33761   0.62570   1.000
    C4      C    0.70368   0.16252   0.62620   1.000
    C5      C    0.70739   0.33977   0.44892   1.000
    C6      C    0.79595   0.37282   0.83693   1.000
    C7      C    0.79428   0.55202   0.66216   1.000
    C8      C    0.29633   0.83748   0.37378   1.000
    C9      C    0.29262   0.66024   0.55107   1.000
    C10     C    0.20406   0.62718   0.16305   1.000
    C11     C    0.20573   0.44797   0.33781   1.000
    O12     O    0.62081   0.18778   0.60504   1.000
    O13     O    0.62588   0.33235   0.47537   1.000
    O14     O    0.79938   0.22102   0.64936   1.000
    O15     O    0.80071   0.35255   0.50664   1.000
    O16     O    0.87902   0.39452   0.81141   1.000
    O17     O    0.87586   0.52615   0.66953   1.000
    O18     O    0.70041   0.34949   0.77902   1.000
    O19     O    0.70089   0.49369   0.64998   1.000
    O20     O    0.37920   0.81222   0.39494   1.000
    O21     O    0.37413   0.66764   0.52461   1.000
    O22     O    0.20063   0.77898   0.35063   1.000
    O23     O    0.19930   0.64745   0.49334   1.000
    O24     O    0.12098   0.60548   0.18857   1.000
    O25     O    0.12415   0.47385   0.33046   1.000
    O26     O    0.29960   0.65051   0.22096   1.000
    O27     O    0.29912   0.50631   0.35001   1.000
    Ts28    Ts   0.91064   0.37609   0.66191   1.000
    Ts29    Ts   0.41003   0.66231   0.37559   1.000
    Ts30    Ts   0.08937   0.62391   0.33807   1.000
    Ts31    Ts   0.58998   0.33769   0.62440   1.000
    Og32    Og   0.69871   0.12688   0.62553   1.000
    Og33    Og   0.70313   0.33877   0.41348   1.000
    Og34    Og   0.80089   0.37346   0.87249   1.000
    Og35    Og   0.79844   0.58747   0.66288   1.000
    Og36    Og   0.30130   0.87312   0.37445   1.000
    Og37    Og   0.29688   0.66123   0.58650   1.000
    Og38    Og   0.19912   0.62654   0.12750   1.000
    Og39    Og   0.20157   0.41253   0.33710   1.000
loop_
    _geom_bond_atom_site_label_1
    _geom_bond_atom_site_label_2
    _geom_bond_distance
    _geom_bond_site_symmetry_2
    _ccdc_geom_bond_type
    C10    O24       1.27748      .   S
    C10    O26       1.27664      .   S
    O24    Zn2       2.05027      .   S
    O26    Zn1       2.08141      .   S
    O25    C11       1.27671      .   S
    O25    Zn2       2.09663      .   S
    C11    O27       1.27793      .   S
    Zn2    O22       2.07890      .   S
    Zn2    O23       2.09040      .   S
    O27    Zn1       2.08809      .   S
    O22    C8        1.27689      .   S
    C8     O20       1.27730      .   S
    Zn1    O20       2.05198      .   S
    Zn1    O21       2.09296      .   S
    C5     O13       1.27711      .   S
    C5     O15       1.27778      .   S
    O13    Zn3       2.09297      .   S
    O23    C9        1.27778      .   S
    O15    Zn0       2.09040      .   S
    O21    C9        1.27711      .   S
    O12    Zn3       2.05198      .   S
    O12    C4        1.27730      .   S
    Zn3    O19       2.08807      .   S
    Zn3    O18       2.08141      .   S
    C4     O14       1.27689      .   S
    O14    Zn0       2.07892      .   S
    O19    C7        1.27793      .   S
    Zn0    O17       2.09661      .   S
    Zn0    O16       2.05025      .   S
    C7     O17       1.27672      .   S
    O18    C6        1.27665      .   S
    O16    C6        1.27748      .   S
    Zn3    Zn0       2.86308      .   S
    Zn1    Zn2       2.86307      .   S
    Zn0    Ts28      0.68722      .   S
    Zn1    Ts29      0.68737      .   S
    Zn2    Ts30      0.68723      .   S
    Zn3    Ts31      0.68737      .   S
    C4     Og32      0.49191      .   S
    C5     Og33      0.49096      .   S
    C6     Og34      0.49191      .   S
    C7     Og35      0.49103      .   S
    C8     Og36      0.49191      .   S
    C9     Og37      0.49096      .   S
    C10    Og38      0.49191      .   S
    C11    Og39      0.49103      .   S
