# CIF file generated by openbabel 2.4.90, see http://openbabel.sf.net
data_I
_chemical_name_common ''
_cell_length_a 22.915
_cell_length_b 13.727
_cell_length_c 18.178
_cell_angle_alpha 100.366
_cell_angle_beta 89.956
_cell_angle_gamma 114.764
_space_group_name_H-M_alt 'P 1'
_space_group_name_Hall 'P 1'
loop_
    _symmetry_equiv_pos_as_xyz
    x,y,z
loop_
    _atom_site_label
    _atom_site_type_symbol
    _atom_site_fract_x
    _atom_site_fract_y
    _atom_site_fract_z
    _atom_site_occupancy
    Zn0     Zn   0.99100   0.39815   0.40315   1.000
    Zn1     Zn   0.29219   0.60228   0.09688   1.000
    Zn2     Zn   0.79218   0.60228   0.09688   1.000
    Zn3     Zn   0.00899   0.60192   0.59680   1.000
    Zn4     Zn   0.50899   0.60192   0.59683   1.000
    Zn5     Zn   0.20781   0.39779   0.90310   1.000
    Zn6     Zn   0.70780   0.39778   0.90310   1.000
    Zn7     Zn   0.49100   0.39815   0.40315   1.000
