# CIF file generated by openbabel 2.4.90, see http://openbabel.sf.net
data_I
_chemical_name_common ''
_cell_length_a 13
_cell_length_b 18.343
_cell_length_c 18.751
_cell_angle_alpha 90.178
_cell_angle_beta 96.467
_cell_angle_gamma 90.123
_space_group_name_H-M_alt 'P 1'
_space_group_name_Hall 'P 1'
loop_
    _symmetry_equiv_pos_as_xyz
    x,y,z
loop_
    _atom_site_label
    _atom_site_type_symbol
    _atom_site_fract_x
    _atom_site_fract_y
    _atom_site_fract_z
    _atom_site_occupancy
    Zn0     Zn   0.62614   0.51256   0.28138   1.000
    Zn1     Zn   0.12437   0.01231   0.21910   1.000
    Zn2     Zn   0.62232   0.01240   0.21932   1.000
    Zn3     Zn   0.37325   0.48761   0.71927   1.000
    Zn4     Zn   0.87546   0.48755   0.72142   1.000
    Zn5     Zn   0.37335   0.98737   0.78093   1.000
    Zn6     Zn   0.87555   0.98767   0.78070   1.000
    Zn7     Zn   0.12458   0.51241   0.28080   1.000
    C8      C    0.43408   0.12839   0.74241   1.000
    C9      C    0.93594   0.12983   0.74214   1.000
    C10     C    0.20452   0.65456   0.30244   1.000
    C11     C    0.70501   0.65516   0.30371   1.000
    C12     C    0.06397   0.87018   0.25784   1.000
    C13     C    0.56368   0.87020   0.25830   1.000
    C14     C    0.04443   0.15430   0.19773   1.000
    C15     C    0.54464   0.15461   0.19778   1.000
    C16     C    0.18496   0.37041   0.24187   1.000
    C17     C    0.68679   0.37169   0.24322   1.000
    C18     C    0.29366   0.34544   0.69752   1.000
    C19     C    0.79529   0.34528   0.69773   1.000
    C20     C    0.45339   0.84552   0.80233   1.000
    C21     C    0.95365   0.84559   0.80234   1.000
    C22     C    0.31268   0.62958   0.75760   1.000
    C23     C    0.81426   0.62934   0.75883   1.000
    O24     O    0.17305   0.65606   0.36273   1.000
    O25     O    0.67573   0.65598   0.36400   1.000
    O26     O    0.20874   0.59677   0.26230   1.000
    O27     O    0.70768   0.59789   0.26266   1.000
    O28     O    0.08890   0.88473   0.32225   1.000
    O29     O    0.59100   0.88463   0.32245   1.000
    O30     O    0.05751   0.91683   0.20512   1.000
    O31     O    0.55497   0.91706   0.20573   1.000
    O32     O    0.07576   0.15586   0.13740   1.000
    O33     O    0.57766   0.15591   0.13797   1.000
    O34     O    0.04042   0.09659   0.23770   1.000
    O35     O    0.53842   0.09689   0.23746   1.000
    O36     O    0.15984   0.38465   0.17751   1.000
    O37     O    0.66177   0.38703   0.17907   1.000
    O38     O    0.19156   0.41730   0.29467   1.000
    O39     O    0.69371   0.41792   0.29663   1.000
    O40     O    0.32527   0.34400   0.63727   1.000
    O41     O    0.82672   0.34393   0.63742   1.000
    O42     O    0.28918   0.40321   0.73767   1.000
    O43     O    0.79108   0.40291   0.73809   1.000
    O44     O    0.40915   0.11258   0.67825   1.000
    O45     O    0.91073   0.11540   0.67774   1.000
    O46     O    0.44036   0.08267   0.79591   1.000
    O47     O    0.94265   0.08307   0.79477   1.000
    O48     O    0.42198   0.84407   0.86264   1.000
    O49     O    0.92021   0.84422   0.86201   1.000
    O50     O    0.45751   0.90319   0.76233   1.000
    O51     O    0.95957   0.90328   0.76258   1.000
    O52     O    0.33780   0.61543   0.82205   1.000
    O53     O    0.83991   0.61538   0.82321   1.000
    O54     O    0.30621   0.58262   0.70490   1.000
    O55     O    0.80787   0.58221   0.70622   1.000
loop_
    _geom_bond_atom_site_label_1
    _geom_bond_atom_site_label_2
    _geom_bond_distance
    _geom_bond_site_symmetry_2
    _ccdc_geom_bond_type
    O32    C14       1.24514      .   S
    O33    C15       1.24547      .   S
    O36    C16       1.24295      .   S
    O37    C17       1.24347      .   S
    C14    O34       1.30329      .   S
    C15    O35       1.30362      .   S
    O30    Zn1       1.95724  1_565   S
    O30    C12       1.30516      .   S
    O31    Zn2       1.95726  1_565   S
    O31    C13       1.30523      .   S
    Zn1    O34       1.94729      .   S
    Zn2    O35       1.94788      .   S
    C16    O38       1.30485      .   S
    C17    O39       1.30543      .   S
    C12    O28       1.24273      .   S
    C13    O29       1.24277      .   S
    O26    Zn7       1.94751      .   S
    O26    C10       1.30304      .   S
    O27    Zn0       1.94340      .   S
    O27    C11       1.30325      .   S
    Zn7    O38       1.95658      .   S
    Zn0    O39       1.95455      .   S
    C10    O24       1.24508      .   S
    C11    O25       1.23291      .   S
    O40    C18       1.24513      .   S
    O41    C19       1.24512      .   S
    O45    C9        1.24266      .   S
    O44    C8        1.24341      .   S
    C18    O42       1.30316      .   S
    C19    O43       1.30300      .   S
    O54    Zn3       1.95609      .   S
    O54    C22       1.30429      .   S
    O55    Zn4       1.95492      .   S
    O55    C23       1.30510      .   S
    Zn3    O42       1.94721      .   S
    Zn4    O43       1.94534      .   S
    C9     O47       1.30520      .   S
    C8     O46       1.30513      .   S
    C22    O52       1.24418      .   S
    C23    O53       1.24325      .   S
    O50    Zn5       1.94759      .   S
    O50    C20       1.30317      .   S
    O51    Zn6       1.94735      .   S
    O51    C21       1.30354      .   S
    Zn6    O47       1.95734  1_565   S
    Zn5    O46       1.95671  1_565   S
    C20    O48       1.24520      .   S
    C21    O49       1.24545      .   S
