# CIF file generated by openbabel 2.4.90, see http://openbabel.sf.net
data_I
_chemical_name_common ''
_cell_length_a 11.298
_cell_length_b 24.39
_cell_length_c 22.765
_cell_angle_alpha 99.196
_cell_angle_beta 89.99
_cell_angle_gamma 89.963
_space_group_name_H-M_alt 'P 1'
_space_group_name_Hall 'P 1'
loop_
    _symmetry_equiv_pos_as_xyz
    x,y,z
loop_
    _atom_site_label
    _atom_site_type_symbol
    _atom_site_fract_x
    _atom_site_fract_y
    _atom_site_fract_z
    _atom_site_occupancy
    Zr0     Zr   0.38286   0.31745   0.72328   1.000
    Zr1     Zr   0.38283   0.81746   0.72330   1.000
    Zr2     Zr   0.88285   0.31745   0.72328   1.000
    Zr3     Zr   0.88282   0.81746   0.72330   1.000
    Zr4     Zr   0.13291   0.43247   0.77676   1.000
    Zr5     Zr   0.13288   0.93246   0.77679   1.000
    Zr6     Zr   0.63290   0.43247   0.77676   1.000
    Zr7     Zr   0.63288   0.93247   0.77679   1.000
    Zr8     Zr   0.11714   0.18256   0.27669   1.000
    Zr9     Zr   0.11711   0.68257   0.27671   1.000
    Zr10    Zr   0.61713   0.18256   0.27669   1.000
    Zr11    Zr   0.61711   0.68257   0.27671   1.000
    Zr12    Zr   0.36710   0.06756   0.22319   1.000
    Zr13    Zr   0.36707   0.56755   0.22322   1.000
    Zr14    Zr   0.86710   0.06756   0.22319   1.000
    Zr15    Zr   0.86707   0.56755   0.22322   1.000
    N16     N    0.41863   0.12628   0.56913   1.000
    O17     O    0.30973   0.04391   0.66376   1.000
    O18     O    0.48401   0.04099   0.66674   1.000
    O19     O    0.47598   0.14169   0.43092   1.000
    O20     O    0.41347   0.11294   0.41755   1.000
    O21     O    0.30258   0.14305   0.43654   1.000
    O22     O    0.40627   0.20384   0.62349   1.000
    N23     N    0.91864   0.62632   0.56914   1.000
    O24     O    0.80975   0.54393   0.66383   1.000
    O25     O    0.98403   0.54102   0.66674   1.000
    O26     O    0.97596   0.64172   0.43093   1.000
    O27     O    0.91345   0.61297   0.41756   1.000
    O28     O    0.80256   0.64308   0.43656   1.000
    O29     O    0.90625   0.70388   0.62350   1.000
    N30     N    0.33129   0.37642   0.06928   1.000
    O31     O    0.34372   0.45397   0.12356   1.000
    O32     O    0.44021   0.29402   0.16388   1.000
    O33     O    0.26595   0.29110   0.16679   1.000
    O34     O    0.44742   0.39310   0.93668   1.000
    O35     O    0.33652   0.36297   0.91768   1.000
    O36     O    0.27403   0.39172   0.93105   1.000
    N37     N    0.33126   0.87643   0.06930   1.000
    O38     O    0.34371   0.95398   0.12356   1.000
    O39     O    0.44019   0.79403   0.16389   1.000
    O40     O    0.26592   0.79111   0.16680   1.000
    O41     O    0.44740   0.89311   0.93673   1.000
    O42     O    0.33650   0.86297   0.91771   1.000
    O43     O    0.27401   0.89172   0.93108   1.000
    N44     N    0.83128   0.37642   0.06928   1.000
    O45     O    0.94021   0.29402   0.16388   1.000
    O46     O    0.76594   0.29110   0.16679   1.000
    O47     O    0.84371   0.45397   0.12356   1.000
    O48     O    0.83651   0.36297   0.91769   1.000
    O49     O    0.77403   0.39172   0.93106   1.000
    O50     O    0.94742   0.39310   0.93670   1.000
    N51     N    0.83125   0.87643   0.06929   1.000
    O52     O    0.94018   0.79403   0.16389   1.000
    O53     O    0.76592   0.79111   0.16680   1.000
    O54     O    0.84370   0.95398   0.12356   1.000
    O55     O    0.83649   0.86297   0.91770   1.000
    O56     O    0.77401   0.89172   0.93108   1.000
    O57     O    0.94739   0.89311   0.93672   1.000
    N58     N    0.41864   0.62632   0.56913   1.000
    O59     O    0.48403   0.54102   0.66673   1.000
    O60     O    0.47596   0.64172   0.43093   1.000
    O61     O    0.41345   0.61297   0.41756   1.000
    O62     O    0.30976   0.54393   0.66383   1.000
    O63     O    0.30257   0.64308   0.43656   1.000
    O64     O    0.40626   0.70388   0.62349   1.000
    N65     N    0.58133   0.37371   0.43083   1.000
    O66     O    0.51594   0.45901   0.33324   1.000
    O67     O    0.69740   0.35695   0.56342   1.000
    O68     O    0.59370   0.29615   0.37648   1.000
    O69     O    0.52401   0.35830   0.56905   1.000
    O70     O    0.58652   0.38706   0.58242   1.000
    O71     O    0.69022   0.45609   0.33615   1.000
    N72     N    0.58134   0.87375   0.43084   1.000
    O73     O    0.51597   0.95903   0.33322   1.000
    O74     O    0.69739   0.85698   0.56344   1.000
    O75     O    0.59369   0.79618   0.37649   1.000
    O76     O    0.52399   0.85833   0.56906   1.000
    O77     O    0.58650   0.88708   0.58243   1.000
    O78     O    0.69024   0.95612   0.33614   1.000
    N79     N    0.66868   0.62360   0.93070   1.000
    O80     O    0.55975   0.70600   0.83610   1.000
    O81     O    0.73401   0.70892   0.83319   1.000
    O82     O    0.55255   0.60692   0.06327   1.000
    O83     O    0.65625   0.54605   0.87642   1.000
    O84     O    0.66344   0.63705   0.08230   1.000
    O85     O    0.72593   0.60830   0.06892   1.000
    N86     N    0.16871   0.12359   0.93067   1.000
    O87     O    0.23404   0.20891   0.83317   1.000
    O88     O    0.05257   0.10692   0.06324   1.000
    O89     O    0.15627   0.04604   0.87642   1.000
    O90     O    0.16347   0.13705   0.08227   1.000
    O91     O    0.22596   0.10830   0.06890   1.000
    O92     O    0.05978   0.20599   0.83609   1.000
    N93     N    0.16868   0.62360   0.93070   1.000
    O94     O    0.05975   0.70600   0.83610   1.000
    O95     O    0.23402   0.70892   0.83319   1.000
    O96     O    0.05255   0.60692   0.06327   1.000
    O97     O    0.15626   0.54605   0.87642   1.000
    O98     O    0.16345   0.63705   0.08230   1.000
    O99     O    0.22594   0.60830   0.06892   1.000
    N100    N    0.66870   0.12359   0.93068   1.000
    O101    O    0.55978   0.20599   0.83609   1.000
    O102    O    0.73404   0.20891   0.83318   1.000
    O103    O    0.55257   0.10692   0.06325   1.000
    O104    O    0.65626   0.04604   0.87642   1.000
    O105    O    0.66346   0.13705   0.08228   1.000
    O106    O    0.72596   0.10830   0.06890   1.000
    N107    N    0.91863   0.12628   0.56913   1.000
    O108    O    0.80973   0.04391   0.66376   1.000
    O109    O    0.97597   0.14169   0.43092   1.000
    O110    O    0.91346   0.11294   0.41755   1.000
    O111    O    0.98401   0.04099   0.66674   1.000
    O112    O    0.80258   0.14305   0.43654   1.000
    O113    O    0.90627   0.20384   0.62349   1.000
    N114    N    0.08134   0.87375   0.43082   1.000
    O115    O    0.19739   0.85698   0.56343   1.000
    O116    O    0.09370   0.79618   0.37649   1.000
    O117    O    0.02399   0.85833   0.56905   1.000
    O118    O    0.08651   0.88708   0.58242   1.000
    O119    O    0.19025   0.95612   0.33613   1.000
    O120    O    0.01597   0.95903   0.33321   1.000
    N121    N    0.08133   0.37371   0.43083   1.000
    O122    O    0.01595   0.45901   0.33324   1.000
    O123    O    0.19740   0.35695   0.56342   1.000
    O124    O    0.09371   0.29615   0.37648   1.000
    O125    O    0.02401   0.35830   0.56905   1.000
    O126    O    0.08652   0.38706   0.58242   1.000
    O127    O    0.19022   0.45609   0.33615   1.000
loop_
    _geom_bond_atom_site_label_1
    _geom_bond_atom_site_label_2
    _geom_bond_distance
    _geom_bond_site_symmetry_2
    _ccdc_geom_bond_type
    N16    O17       3.40247      .   S
    Zr5    O17       4.49911  1_565   S
    N16    O18       3.35948      .   S
    Zr7    O18       4.26940  1_565   S
    N16    O19       3.29214      .   S
    Zr10   O19       4.12102      .   S
    N16    O20       3.41450      .   S
    Zr12   O20       4.41725      .   S
    N16    O21       3.37520      .   S
    Zr8    O21       4.43644      .   S
    N16    O22       2.09299      .   S
    Zr0    O22       3.30080      .   S
    N23    O24       3.40364      .   S
    Zr6    O24       4.49788      .   S
    N23    O25       3.35966      .   S
    Zr4    O25       4.26923  1_455   S
    N23    O26       3.29199      .   S
    Zr9    O26       4.12075  1_455   S
    N23    O27       3.41440      .   S
    Zr15   O27       4.41705      .   S
    N23    O28       3.37507      .   S
    Zr11   O28       4.43640      .   S
    N23    O29       2.09287      .   S
    Zr3    O29       3.30056      .   S
    N30    O31       2.09228      .   S
    Zr13   O31       3.29898      .   S
    N30    O32       3.40194      .   S
    Zr10   O32       4.49523      .   S
    N30    O33       3.35869      .   S
    Zr8    O33       4.26804      .   S
    N30    O34       3.37502  1_554   S
    Zr6    O34       4.43670      .   S
    N30    O35       3.41448  1_554   S
    Zr0    O35       4.41821      .   S
    N30    O36       3.29164  1_554   S
    Zr4    O36       4.12105      .   S
    N37    O38       2.09213      .   S
    Zr12   O38       3.29856  1_545   S
    N37    O39       3.40181      .   S
    Zr11   O39       4.49527      .   S
    N37    O40       3.35860      .   S
    Zr9    O40       4.26806      .   S
    N37    O41       3.37433  1_554   S
    Zr7    O41       4.43702      .   S
    N37    O42       3.41441  1_554   S
    Zr1    O42       4.41823      .   S
    N37    O43       3.29146  1_554   S
    Zr5    O43       4.12089      .   S
    N44    O45       3.40190      .   S
    Zr8    O45       4.49522  1_455   S
    N44    O46       3.35865      .   S
    Zr10   O46       4.26801      .   S
    N44    O47       2.09225      .   S
    Zr15   O47       3.29893      .   S
    N44    O48       3.41455  1_554   S
    Zr2    O48       4.41827      .   S
    N44    O49       3.29170  1_554   S
    Zr6    O49       4.12111      .   S
    N44    O50       3.37463  1_554   S
    Zr4    O50       4.43724  1_455   S
    N51    O52       3.40183      .   S
    Zr9    O52       4.49532  1_455   S
    N51    O53       3.35861      .   S
    Zr11   O53       4.26807      .   S
    N51    O54       2.09213      .   S
    Zr14   O54       3.29856  1_545   S
    N51    O55       3.41440  1_554   S
    Zr3    O55       4.41821      .   S
    N51    O56       3.29145  1_554   S
    Zr7    O56       4.12089      .   S
    N51    O57       3.37453  1_554   S
    Zr5    O57       4.43686  1_455   S
    N58    O59       3.35976      .   S
    Zr6    O59       4.26929      .   S
    N58    O60       3.29185      .   S
    Zr11   O60       4.12060      .   S
    N58    O61       3.41426      .   S
    Zr13   O61       4.41691      .   S
    N58    O62       3.40373      .   S
    Zr4    O62       4.49796      .   S
    N58    O63       3.37493      .   S
    Zr9    O63       4.43628      .   S
    N58    O64       2.09293      .   S
    Zr1    O64       3.30064      .   S
    N65    O66       3.35957      .   S
    Zr13   O66       4.26907      .   S
    N65    O67       3.37513      .   S
    Zr2    O67       4.43658      .   S
    N65    O68       2.09288      .   S
    Zr10   O68       3.30062      .   S
    N65    O69       3.29211      .   S
    Zr0    O69       4.12094      .   S
    N65    O70       3.41442      .   S
    Zr6    O70       4.41706      .   S
    N65    O71       3.40355      .   S
    Zr15   O71       4.49777      .   S
    N72    O73       3.35955      .   S
    Zr12   O73       4.26896  1_545   S
    N72    O74       3.37549      .   S
    Zr3    O74       4.43663      .   S
    N72    O75       2.09294      .   S
    Zr11   O75       3.30078      .   S
    N72    O76       3.29247      .   S
    Zr1    O76       4.12134      .   S
    N72    O77       3.41472      .   S
    Zr7    O77       4.41735      .   S
    N72    O78       3.40349      .   S
    Zr14   O78       4.49782  1_545   S
    N79    O80       3.40181      .   S
    Zr1    O80       4.49513      .   S
    N79    O81       3.35858      .   S
    Zr3    O81       4.26790      .   S
    N79    O82       3.37455  1_556   S
    Zr13   O82       4.43717      .   S
    N79    O83       2.09225      .   S
    Zr6    O83       3.29895      .   S
    N79    O84       3.41459  1_556   S
    Zr11   O84       4.41842      .   S
    N79    O85       3.29169  1_556   S
    Zr15   O85       4.12115      .   S
    N86    O87       3.35841      .   S
    Zr0    O87       4.26785      .   S
    N86    O88       3.37447  1_556   S
    Zr14   O88       4.43714  1_655   S
    N86    O89       2.09206      .   S
    Zr5    O89       3.29849  1_565   S
    N86    O90       3.41468  1_556   S
    Zr8    O90       4.41848      .   S
    N86    O91       3.29167  1_556   S
    Zr12   O91       4.12103      .   S
    N86    O92       3.40165      .   S
    Zr2    O92       4.49511  1_655   S
    N93    O94       3.40181      .   S
    Zr3    O94       4.49517  1_655   S
    N93    O95       3.35857      .   S
    Zr1    O95       4.26788      .   S
    N93    O96       3.37458  1_556   S
    Zr15   O96       4.43723  1_655   S
    N93    O97       2.09225      .   S
    Zr4    O97       3.29895      .   S
    N93    O98       3.41460  1_556   S
    Zr9    O98       4.41843      .   S
    N93    O99       3.29171  1_556   S
    Zr13   O99       4.12116      .   S
    N100   O101      3.40174      .   S
    Zr0    O101      4.49516      .   S
    N100   O102      3.35851      .   S
    Zr2    O102      4.26794      .   S
    N100   O103      3.37432  1_556   S
    Zr12   O103      4.43696      .   S
    N100   O104      2.09212      .   S
    Zr7    O104      3.29857  1_565   S
    N100   O105      3.41454  1_556   S
    Zr10   O105      4.41834      .   S
    N100   O106      3.29153  1_556   S
    Zr14   O106      4.12090      .   S
    N107   O108      3.40248      .   S
    Zr7    O108      4.49912  1_565   S
    N107   O109      3.29214      .   S
    Zr8    O109      4.12105  1_455   S
    N107   O110      3.41450      .   S
    Zr14   O110      4.41725      .   S
    N107   O111      3.35949      .   S
    Zr5    O111      4.26945  1_465   S
    N107   O112      3.37519      .   S
    Zr10   O112      4.43644      .   S
    N107   O113      2.09300      .   S
    Zr2    O113      3.30081      .   S
    N114   O115      3.37566      .   S
    Zr1    O115      4.43679      .   S
    N114   O116      2.09286      .   S
    Zr9    O116      3.30068      .   S
    N114   O117      3.29264      .   S
    Zr3    O117      4.12152  1_655   S
    N114   O118      3.41490      .   S
    Zr5    O118      4.41752      .   S
    N114   O119      3.40338      .   S
    Zr12   O119      4.49771  1_545   S
    N114   O120      3.35942      .   S
    Zr14   O120      4.26887  1_645   S
    N121   O122      3.35957      .   S
    Zr15   O122      4.26910  1_655   S
    N121   O123      3.37514      .   S
    Zr0    O123      4.43659      .   S
    N121   O124      2.09287      .   S
    Zr8    O124      3.30061      .   S
    N121   O125      3.29211      .   S
    Zr2    O125      4.12097  1_655   S
    N121   O126      3.41443      .   S
    Zr4    O126      4.41706      .   S
    N121   O127      3.40352      .   S
    Zr13   O127      4.49782      .   S
