# CIF file generated by openbabel 2.4.90, see http://openbabel.sf.net
data_I
_chemical_name_common ''
_cell_length_a 12.194
_cell_length_b 12.182
_cell_length_c 23.169
_cell_angle_alpha 90
_cell_angle_beta 90
_cell_angle_gamma 90.001
_space_group_name_H-M_alt 'P 1'
_space_group_name_Hall 'P 1'
loop_
    _symmetry_equiv_pos_as_xyz
    x,y,z
loop_
    _atom_site_label
    _atom_site_type_symbol
    _atom_site_fract_x
    _atom_site_fract_y
    _atom_site_fract_z
    _atom_site_occupancy
    H0      H    0.60752   0.67680   0.79878   1.000
    H1      H    0.75327   0.67619   0.87317   1.000
    H2      H    0.39242   0.32320   0.79878   1.000
    H3      H    0.24667   0.32381   0.87317   1.000
    H4      H    0.32336   0.60755   0.29865   1.000
    H5      H    0.32398   0.75328   0.37314   1.000
    H6      H    0.67661   0.39245   0.29865   1.000
    H7      H    0.67598   0.24671   0.37314   1.000
    H8      H    0.39243   0.67680   0.20121   1.000
    H9      H    0.24669   0.67618   0.12682   1.000
    H10     H    0.60753   0.32320   0.20121   1.000
    H11     H    0.75328   0.32382   0.12682   1.000
    H12     H    0.67660   0.60756   0.70134   1.000
    H13     H    0.67598   0.75329   0.62686   1.000
    H14     H    0.32335   0.39244   0.70134   1.000
    H15     H    0.32397   0.24671   0.62686   1.000
    H16     H    0.39243   0.32320   0.20121   1.000
    H17     H    0.24668   0.32382   0.12682   1.000
    H18     H    0.60753   0.67680   0.20121   1.000
    H19     H    0.75328   0.67619   0.12682   1.000
    H20     H    0.67660   0.39245   0.70134   1.000
    H21     H    0.67598   0.24672   0.62686   1.000
    H22     H    0.32335   0.60755   0.70134   1.000
    H23     H    0.32397   0.75329   0.62686   1.000
    H24     H    0.60752   0.32321   0.79878   1.000
    H25     H    0.75327   0.32382   0.87317   1.000
    H26     H    0.39242   0.67680   0.79878   1.000
    H27     H    0.24668   0.67618   0.87317   1.000
    H28     H    0.32336   0.39244   0.29865   1.000
    H29     H    0.32398   0.24671   0.37313   1.000
    H30     H    0.67661   0.60756   0.29865   1.000
    H31     H    0.67599   0.75329   0.37310   1.000
    C32     C    0.63968   0.59882   0.81433   1.000
    C33     C    0.72140   0.59916   0.85625   1.000
    C34     C    0.36026   0.40118   0.81433   1.000
    C35     C    0.27854   0.40085   0.85625   1.000
    C36     C    0.40126   0.63973   0.31421   1.000
    C37     C    0.40092   0.72142   0.35618   1.000
    C38     C    0.59870   0.36027   0.31421   1.000
    C39     C    0.59904   0.27857   0.35618   1.000
    C40     C    0.36028   0.59881   0.18566   1.000
    C41     C    0.27856   0.59915   0.14374   1.000
    C42     C    0.63969   0.40119   0.18566   1.000
    C43     C    0.72141   0.40085   0.14374   1.000
    C44     C    0.59870   0.63974   0.68570   1.000
    C45     C    0.59903   0.72143   0.64381   1.000
    C46     C    0.40125   0.36026   0.68578   1.000
    C47     C    0.40092   0.27857   0.64381   1.000
    C48     C    0.36027   0.40119   0.18566   1.000
    C49     C    0.27855   0.40085   0.14374   1.000
    C50     C    0.63969   0.59882   0.18566   1.000
    C51     C    0.72141   0.59916   0.14374   1.000
    C52     C    0.59870   0.36027   0.68570   1.000
    C53     C    0.59903   0.27858   0.64380   1.000
    C54     C    0.40125   0.63974   0.68570   1.000
    C55     C    0.40092   0.72143   0.64381   1.000
    C56     C    0.63968   0.40119   0.81433   1.000
    C57     C    0.72140   0.40085   0.85625   1.000
    C58     C    0.36026   0.59881   0.81433   1.000
    C59     C    0.27854   0.59915   0.85625   1.000
    C60     C    0.40126   0.36026   0.31421   1.000
    C61     C    0.40092   0.27857   0.35618   1.000
    C62     C    0.59871   0.63974   0.31421   1.000
    C63     C    0.59904   0.72143   0.35618   1.000
    C64     C    0.59831   0.50000   0.79207   1.000
    C65     C    0.85095   0.50000   0.92242   1.000
    C66     C    0.76343   0.50000   0.87749   1.000
    C67     C    0.40163   0.50000   0.79207   1.000
    C68     C    0.14899   0.50000   0.92242   1.000
    C69     C    0.23651   0.50000   0.87749   1.000
    C70     C    0.49998   0.59840   0.29190   1.000
    C71     C    0.49998   0.85093   0.42241   1.000
    C72     C    0.49998   0.76344   0.37744   1.000
    C73     C    0.49998   0.40160   0.29191   1.000
    C74     C    0.49998   0.14907   0.42241   1.000
    C75     C    0.49998   0.23656   0.37744   1.000
    C76     C    0.40164   0.50000   0.20792   1.000
    C77     C    0.14900   0.50000   0.07757   1.000
    C78     C    0.23652   0.50000   0.12250   1.000
    C79     C    0.59832   0.50000   0.20792   1.000
    C80     C    0.85096   0.50001   0.07757   1.000
    C81     C    0.76344   0.50001   0.12250   1.000
    C82     C    0.49997   0.59840   0.70808   1.000
    C83     C    0.49998   0.85093   0.57758   1.000
    C84     C    0.49998   0.76344   0.62250   1.000
    C85     C    0.49997   0.40160   0.70808   1.000
    C86     C    0.49998   0.14907   0.57758   1.000
    C87     C    0.49998   0.23656   0.62250   1.000
    C88     C    0.49997   0.50000   0.75008   1.000
    C89     C    0.49998   0.50000   0.24991   1.000
    O90     O    0.88514   0.59358   0.93998   1.000
    O91     O    0.11481   0.40642   0.93990   1.000
    O92     O    0.40649   0.88511   0.43998   1.000
    O93     O    0.59347   0.11489   0.43998   1.000
    O94     O    0.11482   0.59358   0.06002   1.000
    O95     O    0.88514   0.40643   0.06002   1.000
    O96     O    0.59346   0.88511   0.56001   1.000
    O97     O    0.40649   0.11489   0.56001   1.000
    O98     O    0.11482   0.40642   0.06002   1.000
    O99     O    0.88515   0.59358   0.06002   1.000
    O100    O    0.59346   0.11489   0.56001   1.000
    O101    O    0.40649   0.88511   0.56001   1.000
    O102    O    0.88513   0.40643   0.93998   1.000
    O103    O    0.11481   0.59357   0.93998   1.000
    O104    O    0.40649   0.11489   0.43998   1.000
    O105    O    0.59347   0.88512   0.43998   1.000
loop_
    _geom_bond_atom_site_label_1
    _geom_bond_atom_site_label_2
    _geom_bond_distance
    _geom_bond_site_symmetry_2
    _ccdc_geom_bond_type
    O99    C80       1.28006      .   S
    O98    C77       1.28007      .   S
    O95    C80       1.28006      .   S
    O94    C77       1.28007      .   S
    C77    C78       1.49082      .   S
    C80    C81       1.49082      .   S
    C78    C49       1.40136      .   S
    C78    C41       1.40135      .   S
    C81    C51       1.40135      .   S
    C81    C43       1.40136      .   S
    H9     C41       1.08871      .   S
    H11    C43       1.08870      .   S
    H19    C51       1.08870      .   S
    H17    C49       1.08869      .   S
    C51    C50       1.39153      .   S
    C49    C48       1.39153      .   S
    C43    C42       1.39153      .   S
    C41    C40       1.39153      .   S
    C50    H18       1.08906      .   S
    C50    C79       1.40340      .   S
    C42    H10       1.08907      .   S
    C42    C79       1.40338      .   S
    C40    H8        1.08907      .   S
    C40    C76       1.40338      .   S
    C48    H16       1.08907      .   S
    C48    C76       1.40338      .   S
    C79    C89       1.54417      .   S
    C76    C89       1.54417      .   S
    C89    C70       1.54380      .   S
    C89    C73       1.54394      .   S
    C70    C62       1.40355      .   S
    C70    C36       1.40356      .   S
    C73    C60       1.40348      .   S
    C73    C38       1.40347      .   S
    H28    C60       1.08907      .   S
    H30    C62       1.08907      .   S
    H6     C38       1.08907      .   S
    H4     C36       1.08908      .   S
    C60    C61       1.39138      .   S
    C62    C63       1.39138      .   S
    C38    C39       1.39138      .   S
    C36    C37       1.39138      .   S
    C61    H29       1.08867      .   S
    C61    C75       1.40129      .   S
    C39    H7        1.08875      .   S
    C39    C75       1.40129      .   S
    C37    H5        1.08875      .   S
    C37    C72       1.40129      .   S
    C63    H31       1.08841      .   S
    C63    C72       1.40129      .   S
    C72    C71       1.49053      .   S
    C75    C74       1.49053      .   S
    C71    O105      1.28009      .   S
    C71    O92       1.28009      .   S
    C74    O93       1.28010      .   S
    C74    O104      1.28009      .   S
    O101   C83       1.28009      .   S
    O100   C86       1.28010      .   S
    O96    C83       1.28010      .   S
    O97    C86       1.28009      .   S
    C83    C84       1.48972      .   S
    C86    C87       1.48973      .   S
    C84    C45       1.40169      .   S
    C84    C55       1.40170      .   S
    C87    C53       1.40161      .   S
    C87    C47       1.40170      .   S
    H23    C55       1.08866      .   S
    H21    C53       1.08858      .   S
    H13    C45       1.08867      .   S
    H15    C47       1.08866      .   S
    C53    C52       1.39025      .   S
    C45    C44       1.39009      .   S
    C47    C46       1.39138      .   S
    C55    C54       1.39008      .   S
    C44    H12       1.08969      .   S
    C44    C82       1.40415      .   S
    C54    H22       1.08969      .   S
    C54    C82       1.40415      .   S
    C52    H20       1.08969      .   S
    C52    C85       1.40416      .   S
    C46    H14       1.08907      .   S
    C46    C85       1.40346      .   S
    C82    C88       1.54394      .   S
    C85    C88       1.54394      .   S
    C88    C67       1.54417      .   S
    C88    C64       1.54417      .   S
    C67    C34       1.40339      .   S
    C67    C58       1.40339      .   S
    C64    C32       1.40339      .   S
    C64    C56       1.40339      .   S
    H24    C56       1.08907      .   S
    H0     C32       1.08906      .   S
    H2     C34       1.08908      .   S
    H26    C58       1.08907      .   S
    C32    C33       1.39153      .   S
    C34    C35       1.39152      .   S
    C58    C59       1.39153      .   S
    C56    C57       1.39152      .   S
    C57    H25       1.08870      .   S
    C57    C66       1.40136      .   S
    C33    H1        1.08870      .   S
    C33    C66       1.40136      .   S
    C59    H27       1.08870      .   S
    C59    C69       1.40135      .   S
    C35    H3        1.08870      .   S
    C35    C69       1.40136      .   S
    C66    C65       1.49082      .   S
    C69    C68       1.49082      .   S
    C65    O90       1.28014      .   S
    C65    O102      1.28013      .   S
    C68    O91       1.27955      .   S
    C68    O103      1.28014      .   S
