# CIF file generated by openbabel 2.4.90, see http://openbabel.sf.net
data_I
_chemical_name_common ''
_cell_length_a 17.675
_cell_length_b 17.661
_cell_length_c 17.684
_cell_angle_alpha 90.659
_cell_angle_beta 119.543
_cell_angle_gamma 119.714
_space_group_name_H-M_alt 'P 1'
_space_group_name_Hall 'P 1'
loop_
    _symmetry_equiv_pos_as_xyz
    x,y,z
loop_
    _atom_site_label
    _atom_site_type_symbol
    _atom_site_fract_x
    _atom_site_fract_y
    _atom_site_fract_z
    _atom_site_occupancy
    Zr0     Zr   0.03166   0.46871   0.77980   1.000
    Zr1     Zr   0.46800   0.24795   0.43690   1.000
    Zr2     Zr   0.68789   0.21961   0.75156   1.000
    Zr3     Zr   0.81187   0.56342   0.53162   1.000
    Zr4     Zr   0.31214   0.78035   0.24843   1.000
    Zr5     Zr   0.18816   0.43655   0.46836   1.000
    Zr6     Zr   0.96837   0.53124   0.22019   1.000
    Zr7     Zr   0.53203   0.75201   0.56302   1.000
    N8      N    0.48027   0.37841   0.55789   1.000
    O9      O    0.62239   0.46531   0.55499   1.000
    N10     N    0.74965   0.87463   0.12445   1.000
    O11     O    0.56100   0.83661   0.18291   1.000
    O12     O    0.93873   0.12194   0.27538   1.000
    O13     O    0.65337   0.81675   0.87729   1.000
    O14     O    0.84641   0.72393   0.16317   1.000
    N15     N    0.51976   0.62155   0.44209   1.000
    O16     O    0.37764   0.53465   0.44499   1.000
    N17     N    0.01986   0.57775   0.89807   1.000
    O18     O    0.87762   0.43265   0.84286   1.000
    N19     N    0.25021   0.12534   0.87554   1.000
    O20     O    0.34658   0.18321   0.12269   1.000
    O21     O    0.43895   0.16335   0.81708   1.000
    O22     O    0.06121   0.87803   0.72460   1.000
    O23     O    0.15354   0.27603   0.83682   1.000
    N24     N    0.17947   0.55801   0.57734   1.000
    O25     O    0.08976   0.55492   0.43264   1.000
    N26     N    0.98017   0.42221   0.10192   1.000
    O27     O    0.12241   0.56731   0.15712   1.000
    N28     N    0.82056   0.44195   0.42264   1.000
    O29     O    0.91027   0.44504   0.56735   1.000
    N30     N    0.67956   0.10205   0.62168   1.000
    O31     O    0.58963   0.15695   0.53493   1.000
    N32     N    0.32048   0.89791   0.37829   1.000
    O33     O    0.41040   0.84301   0.46503   1.000
    O34     O    0.54224   0.68637   0.49321   1.000
    O35     O    0.30727   0.85581   0.31374   1.000
    O36     O    0.45779   0.31359   0.50675   1.000
    O37     O    0.80722   0.49328   0.45144   1.000
    O38     O    0.95790   0.45098   0.14432   1.000
    O39     O    0.04214   0.54897   0.85567   1.000
    O40     O    0.19281   0.50668   0.54853   1.000
    O41     O    0.69276   0.14415   0.68624   1.000
loop_
    _geom_bond_atom_site_label_1
    _geom_bond_atom_site_label_2
    _geom_bond_distance
    _geom_bond_site_symmetry_2
    _ccdc_geom_bond_type
    N8     O9        2.23040      .   S
    Zr3    O9        3.16514      .   S
    N10    O11       3.71937      .   S
    Zr4    O11       4.73245      .   S
    N10    O12       3.71954  1_565   S
    Zr5    O12       4.73270  1_455   S
    N10    O13       3.72593  1_554   S
    Zr7    O13       4.73939      .   S
    N10    O14       3.72512      .   S
    Zr6    O14       4.73841      .   S
    N15    O16       2.23049      .   S
    Zr5    O16       3.16522      .   S
    N17    O18       2.23070  1_455   S
    Zr2    O18       3.16569      .   S
    N19    O20       3.72533  1_556   S
    Zr1    O20       4.73814      .   S
    N19    O21       3.72081      .   S
    Zr2    O21       4.73392      .   S
    N19    O22       3.71958  1_545   S
    Zr3    O22       4.73271  1_655   S
    N19    O23       3.72394      .   S
    Zr0    O23       4.73723      .   S
    N24    O25       2.23045      .   S
    Zr6    O25       3.16514  1_655   S
    N26    O27       2.23069  1_655   S
    Zr4    O27       3.16570      .   S
    N28    O29       2.23053      .   S
    Zr0    O29       3.16524  1_455   S
    N30    O31       2.23088      .   S
    Zr1    O31       3.16609      .   S
    N32    O33       2.23082      .   S
    Zr7    O33       3.16590      .   S
    Zr7    O34       1.81518      .   S
    N15    O34       1.20688      .   S
    Zr4    O35       1.81486      .   S
    N32    O35       1.20673      .   S
    Zr1    O36       1.81567      .   S
    N8     O36       1.20706      .   S
    N28    O37       1.20676      .   S
    Zr3    O37       1.81531      .   S
    Zr6    O38       1.81513      .   S
    N26    O38       1.20687      .   S
    Zr0    O39       1.81509      .   S
    N17    O39       1.20682      .   S
    Zr5    O40       1.81511      .   S
    N24    O40       1.20680      .   S
    N30    O41       1.20678      .   S
    Zr2    O41       1.81501      .   S
