# CIF file generated by openbabel 2.4.90, see http://openbabel.sf.net
data_I
_chemical_name_common ''
_cell_length_a 6.608
_cell_length_b 17.299
_cell_length_c 18.381
_cell_angle_alpha 89.998
_cell_angle_beta 89.996
_cell_angle_gamma 81.79
_space_group_name_H-M_alt 'P 1'
_space_group_name_Hall 'P 1'
loop_
    _symmetry_equiv_pos_as_xyz
    x,y,z
loop_
    _atom_site_label
    _atom_site_type_symbol
    _atom_site_fract_x
    _atom_site_fract_y
    _atom_site_fract_z
    _atom_site_occupancy
    Zn0     Zn   0.73905   0.79992   0.01828   1.000
    Zn1     Zn   0.73907   0.29992   0.48173   1.000
    Zn2     Zn   0.25862   0.19998   0.98169   1.000
    Zn3     Zn   0.25860   0.69998   0.51829   1.000
    Ts4     Ts   0.78536   0.80217   0.04985   1.000
    Ts5     Ts   0.70658   0.76365   0.01517   1.000
    Ts6     Ts   0.65391   0.82688   0.01678   1.000
    Ts7     Ts   0.79586   0.80223   0.98891   1.000
    Ts8     Ts   0.70660   0.26365   0.48484   1.000
    Ts9     Ts   0.65393   0.32689   0.48324   1.000
    Ts10    Ts   0.79588   0.30223   0.51111   1.000
    Ts11    Ts   0.78537   0.30217   0.45016   1.000
    Ts12    Ts   0.21269   0.19775   0.95008   1.000
    Ts13    Ts   0.29157   0.23621   0.98482   1.000
    Ts14    Ts   0.34432   0.17306   0.98322   1.000
    Ts15    Ts   0.20211   0.19766   0.01110   1.000
    Ts16    Ts   0.29155   0.73621   0.51517   1.000
    Ts17    Ts   0.34430   0.67305   0.51676   1.000
    Ts18    Ts   0.20209   0.69766   0.48888   1.000
    Ts19    Ts   0.21267   0.69774   0.54991   1.000
loop_
    _geom_bond_atom_site_label_1
    _geom_bond_atom_site_label_2
    _geom_bond_distance
    _geom_bond_site_symmetry_2
    _ccdc_geom_bond_type
    Zn0    Ts4       0.65978      .   S
    Zn0    Ts5       0.69385      .   S
    Zn0    Ts6       0.67814      .   S
    Zn0    Ts7       0.66212  1_554   S
    Zn1    Ts8       0.69384      .   S
    Zn1    Ts9       0.67813      .   S
    Zn1    Ts10      0.66212      .   S
    Zn1    Ts11      0.65976      .   S
    Zn2    Ts12      0.65935      .   S
    Zn2    Ts13      0.69458      .   S
    Zn2    Ts14      0.68049      .   S
    Zn2    Ts15      0.66144  1_556   S
    Zn3    Ts16      0.69457      .   S
    Zn3    Ts17      0.68049      .   S
    Zn3    Ts18      0.66144      .   S
    Zn3    Ts19      0.65932      .   S
