# CIF file generated by openbabel 2.4.90, see http://openbabel.sf.net
data_I
_chemical_name_common ''
_cell_length_a 14.233
_cell_length_b 15.7
_cell_length_c 15.696
_cell_angle_alpha 87.161
_cell_angle_beta 76.976
_cell_angle_gamma 76.979
_space_group_name_H-M_alt 'P 1'
_space_group_name_Hall 'P 1'
loop_
    _symmetry_equiv_pos_as_xyz
    x,y,z
loop_
    _atom_site_label
    _atom_site_type_symbol
    _atom_site_fract_x
    _atom_site_fract_y
    _atom_site_fract_z
    _atom_site_occupancy
    N0      N    0.55199   0.48784   0.25043   1.000
    N1      N    0.05272   0.48777   0.25061   1.000
    N2      N    0.42241   0.51233   0.74927   1.000
    N3      N    0.92131   0.51215   0.74906   1.000
    N4      N    0.70312   0.75078   0.98823   1.000
    N5      N    0.57164   0.24941   0.01211   1.000
    N6      N    0.20345   0.75008   0.48818   1.000
    N7      N    0.70325   0.74990   0.48753   1.000
    N8      N    0.32060   0.25105   0.51220   1.000
    N9      N    0.82042   0.25116   0.51201   1.000
    N10     N    0.92041   0.01183   0.75007   1.000
    N11     N    0.42163   0.01179   0.74997   1.000
    N12     N    0.80325   0.98765   0.24902   1.000
    N13     N    0.30321   0.98791   0.24900   1.000
    N14     N    0.07070   0.24909   0.01217   1.000
    N15     N    0.20268   0.75093   0.98771   1.000
    Zr16    Zr   0.55537   0.26311   0.76306   1.000
    O17     O    0.63919   0.26105   0.69192   1.000
    O18     O    0.56306   0.25892   0.84098   1.000
    O19     O    0.51109   0.34110   0.75889   1.000
    O20     O    0.50807   0.19188   0.76069   1.000
    Zr21    Zr   0.56819   0.73689   0.23689   1.000
    O22     O    0.61581   0.73924   0.30794   1.000
    O23     O    0.48440   0.80803   0.23900   1.000
    O24     O    0.61308   0.74110   0.15909   1.000
    O25     O    0.56052   0.65896   0.24102   1.000
    Zr26    Zr   0.05401   0.26312   0.76307   1.000
    O27     O    0.13812   0.26101   0.69191   1.000
    O28     O    0.06187   0.25884   0.84101   1.000
    O29     O    0.00985   0.34104   0.75879   1.000
    O30     O    0.00678   0.19190   0.76071   1.000
    Zr31    Zr   0.06975   0.73691   0.23687   1.000
    O32     O    0.11704   0.73931   0.30808   1.000
    O33     O    0.11402   0.74119   0.15891   1.000
    O34     O    0.98566   0.80803   0.23900   1.000
    O35     O    0.06184   0.65894   0.24106   1.000
    Zr36    Zr   0.56351   0.76314   0.73674   1.000
    O37     O    0.60986   0.75914   0.65876   1.000
    O38     O    0.51484   0.69205   0.73897   1.000
    O39     O    0.61181   0.76096   0.80801   1.000
    O40     O    0.51649   0.84094   0.74073   1.000
    Zr41    Zr   0.81088   0.23688   0.26300   1.000
    O42     O    0.81651   0.24127   0.34091   1.000
    O43     O    0.80579   0.15889   0.25873   1.000
    O44     O    0.89387   0.23903   0.19192   1.000
    O45     O    0.72817   0.30803   0.26077   1.000
    Zr46    Zr   0.06175   0.76317   0.73683   1.000
    O47     O    0.11037   0.76102   0.80795   1.000
    O48     O    0.10870   0.75922   0.65904   1.000
    O49     O    0.01328   0.69201   0.73898   1.000
    O50     O    0.01492   0.84097   0.74084   1.000
    Zr51    Zr   0.31269   0.23695   0.26311   1.000
    O52     O    0.31789   0.24125   0.34105   1.000
    O53     O    0.22966   0.30802   0.26089   1.000
    O54     O    0.39543   0.23915   0.19195   1.000
    O55     O    0.30708   0.15902   0.25879   1.000
loop_
    _geom_bond_atom_site_label_1
    _geom_bond_atom_site_label_2
    _geom_bond_distance
    _geom_bond_site_symmetry_2
    _ccdc_geom_bond_type
    Zr16   O17       1.43422      .   S
    N9     O17       3.35142      .   S
    Zr16   O18       1.24958      .   S
    N5     O18       2.71136  1_554   S
    Zr16   O19       1.25049      .   S
    N2     O19       2.71279      .   S
    Zr16   O20       1.43516      .   S
    N11    O20       3.35336      .   S
    Zr21   O22       1.43538      .   S
    N7     O22       3.35338      .   S
    Zr21   O23       1.43405      .   S
    N13    O23       3.35116      .   S
    Zr21   O24       1.25025      .   S
    N4     O24       2.71225  1_556   S
    Zr21   O25       1.24983      .   S
    N0     O25       2.71181      .   S
    Zr26   O27       1.43694      .   S
    N8     O27       3.35937      .   S
    Zr26   O28       1.25053      .   S
    N14    O28       2.71273  1_554   S
    Zr26   O29       1.24924      .   S
    N3     O29       2.71089  1_655   S
    Zr26   O30       1.43448      .   S
    N10    O30       3.35213  1_655   S
    Zr31   O32       1.43480      .   S
    N6     O32       3.35269      .   S
    Zr31   O33       1.24991      .   S
    N15    O33       2.71186  1_556   S
    Zr31   O34       1.43661  1_455   S
    N12    O34       3.35836      .   S
    Zr31   O35       1.25142      .   S
    N1     O35       2.71481      .   S
    Zr36   O37       1.24983      .   S
    N7     O37       2.71159      .   S
    Zr36   O38       1.43556      .   S
    N2     O38       3.35407      .   S
    Zr36   O39       1.43433      .   S
    N4     O39       3.35180      .   S
    Zr36   O40       1.25056      .   S
    N11    O40       2.71248  1_545   S
    Zr41   O42       1.24968      .   S
    N9     O42       2.71139      .   S
    Zr41   O43       1.24872      .   S
    N12    O43       2.70909  1_565   S
    Zr41   O44       1.43573      .   S
    N14    O44       3.35468  1_455   S
    Zr41   O45       1.43434      .   S
    N0     O45       3.35139      .   S
    Zr46   O47       1.43520      .   S
    N15    O47       3.35343      .   S
    Zr46   O48       1.24991      .   S
    N6     O48       2.71146      .   S
    Zr46   O49       1.43476      .   S
    N3     O49       3.35255  1_655   S
    Zr46   O50       1.24978      .   S
    N10    O50       2.71135  1_645   S
    Zr51   O52       1.24809      .   S
    N8     O52       2.70775      .   S
    Zr51   O53       1.43650      .   S
    N1     O53       3.35672      .   S
    Zr51   O54       1.43424      .   S
    N5     O54       3.35121      .   S
    Zr51   O55       1.25000      .   S
    N13    O55       2.71201  1_565   S
