# CIF file generated by openbabel 2.4.90, see http://openbabel.sf.net
data_I
_chemical_name_common ''
_cell_length_a 23.442
_cell_length_b 23.974
_cell_length_c 14.059
_cell_angle_alpha 112.345
_cell_angle_beta 89.896
_cell_angle_gamma 118.644
_space_group_name_H-M_alt 'P 1'
_space_group_name_Hall 'P 1'
loop_
    _symmetry_equiv_pos_as_xyz
    x,y,z
loop_
    _atom_site_label
    _atom_site_type_symbol
    _atom_site_fract_x
    _atom_site_fract_y
    _atom_site_fract_z
    _atom_site_occupancy
    Zn0     Zn   0.16816   0.85875   0.75525   1.000
    Zn1     Zn   0.66818   0.35876   0.75523   1.000
    Zn2     Zn   0.66817   0.85872   0.75500   1.000
    Zn3     Zn   0.19290   0.36274   0.25987   1.000
    Zn4     Zn   0.19292   0.86277   0.25999   1.000
    Zn5     Zn   0.69292   0.36272   0.25989   1.000
    Zn6     Zn   0.69295   0.86275   0.26002   1.000
    Zn7     Zn   0.16817   0.35880   0.75529   1.000
    C8      C    0.20526   0.49639   0.89786   1.000
    C9      C    0.20519   0.99632   0.89780   1.000
    C10     C    0.70529   0.49636   0.89782   1.000
    C11     C    0.70522   0.99629   0.89776   1.000
    C12     C    0.16033   0.22671   0.12155   1.000
    C13     C    0.16037   0.72674   0.12165   1.000
    C14     C    0.66038   0.22668   0.12159   1.000
    C15     C    0.66042   0.72671   0.12170   1.000
    O16     O    0.28714   0.94119   0.33002   1.000
    O17     O    0.78715   0.44114   0.32993   1.000
    O18     O    0.78716   0.94118   0.33005   1.000
    O19     O    0.07258   0.28334   0.69021   1.000
    O20     O    0.07258   0.78326   0.69017   1.000
    O21     O    0.57259   0.28333   0.69017   1.000
    O22     O    0.57258   0.78326   0.69012   1.000
    O23     O    0.11243   0.21524   0.59609   1.000
    C24     C    0.29275   0.49878   0.40040   1.000
    C25     C    0.29275   0.99881   0.40052   1.000
    C26     C    0.79278   0.49876   0.40046   1.000
    C27     C    0.79277   0.99879   0.40055   1.000
    C28     C    0.06531   0.22464   0.61967   1.000
    C29     C    0.06532   0.72458   0.61961   1.000
    C30     C    0.56531   0.22463   0.61966   1.000
    C31     C    0.56532   0.72457   0.61959   1.000
    O32     O    0.26091   0.00170   0.91509   1.000
    O33     O    0.26097   0.50175   0.91516   1.000
    O34     O    0.76094   0.00167   0.91499   1.000
    O35     O    0.76101   0.50172   0.91507   1.000
    O36     O    0.15358   0.43922   0.82863   1.000
    O37     O    0.15352   0.93915   0.82856   1.000
    O38     O    0.65360   0.43919   0.82861   1.000
    O39     O    0.65353   0.93912   0.82854   1.000
    O40     O    0.21138   0.28495   0.19107   1.000
    O41     O    0.21142   0.78499   0.19110   1.000
    O42     O    0.71142   0.28492   0.19112   1.000
    O43     O    0.71146   0.78496   0.19121   1.000
    O44     O    0.10429   0.21835   0.09993   1.000
    O45     O    0.10433   0.71837   0.10001   1.000
    O46     O    0.60434   0.21832   0.09997   1.000
    O47     O    0.60438   0.71834   0.10006   1.000
    O48     O    0.24306   0.00536   0.42001   1.000
    O49     O    0.24308   0.50533   0.41994   1.000
    O50     O    0.74308   0.00533   0.42000   1.000
    O51     O    0.74309   0.50530   0.41995   1.000
    O52     O    0.28712   0.44116   0.32991   1.000
    O53     O    0.11245   0.71520   0.59602   1.000
    O54     O    0.61243   0.21522   0.59607   1.000
    O55     O    0.61245   0.71518   0.59601   1.000
loop_
    _geom_bond_atom_site_label_1
    _geom_bond_atom_site_label_2
    _geom_bond_distance
    _geom_bond_site_symmetry_2
    _ccdc_geom_bond_type
    O44    C12       1.24942      .   S
    O46    C14       1.24941      .   S
    O45    C13       1.24944      .   S
    O47    C15       1.24944      .   S
    C12    O40       1.30443      .   S
    C14    O42       1.30442      .   S
    C13    O41       1.30415      .   S
    C15    O43       1.30440      .   S
    O40    Zn3       2.00078      .   S
    O41    Zn4       2.00098      .   S
    O42    Zn5       2.00092      .   S
    O43    Zn6       2.00101      .   S
    Zn3    O52       2.00051      .   S
    Zn5    O17       2.00053      .   S
    Zn4    O16       2.00032      .   S
    Zn6    O18       2.00032      .   S
    O52    C24       1.30095      .   S
    O17    C26       1.30113      .   S
    O16    C25       1.30114      .   S
    O18    C27       1.30112      .   S
    C24    O49       1.26395      .   S
    C26    O51       1.26387      .   S
    C25    O48       1.26405  1_565   S
    C27    O50       1.26400  1_565   S
    O55    C31       1.24967      .   S
    O53    C29       1.24966      .   S
    O54    C30       1.24968      .   S
    O23    C28       1.24965      .   S
    C31    O22       1.30460      .   S
    C29    O20       1.30463      .   S
    C30    O21       1.30457      .   S
    C28    O19       1.30459      .   S
    O22    Zn2       1.99800      .   S
    O20    Zn0       1.99835      .   S
    O21    Zn1       1.99831      .   S
    O19    Zn7       1.99836      .   S
    Zn2    O39       2.00476      .   S
    Zn1    O38       2.00426      .   S
    Zn0    O37       2.00435      .   S
    Zn7    O36       2.00423      .   S
    O39    C11       1.30062      .   S
    O37    C9        1.30062      .   S
    O38    C10       1.30064      .   S
    O36    C8        1.30064      .   S
    C11    O34       1.26385  1_565   S
    C9     O32       1.26385  1_565   S
    C10    O35       1.26401      .   S
    C8     O33       1.26403      .   S
