# CIF file generated by openbabel 2.4.90, see http://openbabel.sf.net
data_I
_chemical_name_common ''
_cell_length_a 19.226
_cell_length_b 22.029
_cell_length_c 18.973
_cell_angle_alpha 101.661
_cell_angle_beta 87.803
_cell_angle_gamma 90.678
_space_group_name_H-M_alt 'P 1'
_space_group_name_Hall 'P 1'
loop_
    _symmetry_equiv_pos_as_xyz
    x,y,z
loop_
    _atom_site_label
    _atom_site_type_symbol
    _atom_site_fract_x
    _atom_site_fract_y
    _atom_site_fract_z
    _atom_site_occupancy
    C0      C    0.51832   0.23302   0.86632   1.000
    C1      C    0.49433   0.72603   0.84974   1.000
    C2      C    0.99428   0.22500   0.85104   1.000
    C3      C    0.00000   0.73252   0.86802   1.000
    C4      C    0.49254   0.06879   0.59438   1.000
    C5      C    0.50174   0.58661   0.55658   1.000
    C6      C    0.00000   0.08568   0.55802   1.000
    C7      C    0.99276   0.56766   0.59595   1.000
    C8      C    0.48463   0.13259   0.00430   1.000
    C9      C    0.51523   0.62996   0.98851   1.000
    C10     C    0.00000   0.12836   0.98936   1.000
    C11     C    0.98496   0.63127   0.00592   1.000
    C12     C    0.23382   0.01843   0.63504   1.000
    C13     C    0.25599   0.52466   0.65190   1.000
    C14     C    0.75545   0.02571   0.65139   1.000
    C15     C    0.73306   0.51943   0.63485   1.000
    C16     C    0.25812   0.18508   0.90564   1.000
    C17     C    0.24804   0.66401   0.94506   1.000
    C18     C    0.74850   0.16393   0.94498   1.000
    C19     C    0.75743   0.68403   0.90682   1.000
    C20     C    0.26508   0.11796   0.49560   1.000
    C21     C    0.23574   0.62071   0.51277   1.000
    C22     C    0.73685   0.12175   0.51190   1.000
    C23     C    0.76548   0.61928   0.49578   1.000
    C24     C    0.98310   0.26814   0.13508   1.000
    C25     C    0.00623   0.77477   0.15169   1.000
    C26     C    0.50611   0.27629   0.15052   1.000
    C27     C    0.48301   0.76889   0.13365   1.000
    C28     C    0.00697   0.43226   0.40731   1.000
    C29     C    0.99798   0.91246   0.44536   1.000
    C30     C    0.49813   0.41338   0.44476   1.000
    C31     C    0.50789   0.93308   0.40590   1.000
    C32     C    0.01650   0.36885   0.99701   1.000
    C33     C    0.98482   0.87169   0.00000   1.000
    C34     C    0.48673   0.37296   0.00000   1.000
    C35     C    0.51492   0.87015   0.99556   1.000
    C36     C    0.26645   0.48074   0.36790   1.000
    C37     C    0.24411   0.97312   0.35081   1.000
    C38     C    0.74429   0.47518   0.35055   1.000
    C39     C    0.76725   0.98194   0.36751   1.000
    C40     C    0.24282   0.31618   0.09600   1.000
    C41     C    0.25200   0.83707   0.05593   1.000
    C42     C    0.75249   0.33729   0.05625   1.000
    C43     C    0.74262   0.81730   0.09570   1.000
    C44     C    0.23406   0.38066   0.50692   1.000
    C45     C    0.26514   0.87806   0.49126   1.000
    C46     C    0.76421   0.37932   0.49039   1.000
    C47     C    0.73370   0.88178   0.50632   1.000
