# CIF file generated by openbabel 2.4.90, see http://openbabel.sf.net
data_I
_chemical_name_common ''
_cell_length_a 21.836
_cell_length_b 13.243
_cell_length_c 13.24
_cell_angle_alpha 119.454
_cell_angle_beta 90.024
_cell_angle_gamma 90.096
_space_group_name_H-M_alt 'P 1'
_space_group_name_Hall 'P 1'
loop_
    _symmetry_equiv_pos_as_xyz
    x,y,z
loop_
    _atom_site_label
    _atom_site_type_symbol
    _atom_site_fract_x
    _atom_site_fract_y
    _atom_site_fract_z
    _atom_site_occupancy
    Zr0     Zr   0.25004   0.66824   0.33257   1.000
    Zr1     Zr   0.75004   0.66731   0.33244   1.000
    Zr2     Zr   0.24999   0.33278   0.66759   1.000
    Zr3     Zr   0.74999   0.33185   0.66745   1.000
    N4      N    0.12817   0.00023   0.54850   1.000
    N5      N    0.87185   0.99983   0.45152   1.000
    O6      O    0.19670   0.79638   0.44885   1.000
    O7      O    0.80377   0.79580   0.34420   1.000
    O8      O    0.80332   0.20371   0.55113   1.000
    O9      O    0.19626   0.20429   0.65580   1.000
    O10     O    0.05601   0.00012   0.52118   1.000
    N11     N    0.37189   0.00058   0.45162   1.000
    N12     N    0.62813   0.99949   0.54840   1.000
    O13     O    0.30348   0.20468   0.55147   1.000
    O14     O    0.69655   0.79542   0.44856   1.000
    O15     O    0.30365   0.79679   0.34419   1.000
    O16     O    0.69637   0.20331   0.65581   1.000
    O17     O    0.55599   0.99980   0.52114   1.000
    N18     N    0.37197   0.54855   0.54821   1.000
    N19     N    0.62805   0.45154   0.45182   1.000
    O20     O    0.69629   0.34483   0.55091   1.000
    O21     O    0.69644   0.55045   0.34505   1.000
    O22     O    0.30374   0.65526   0.44911   1.000
    O23     O    0.30358   0.44965   0.65499   1.000
    O24     O    0.55595   0.47886   0.47897   1.000
    N25     N    0.62826   0.54800   0.99978   1.000
    N26     N    0.37177   0.45208   0.00021   1.000
    O27     O    0.69669   0.44814   0.79565   1.000
    O28     O    0.30356   0.34476   0.79630   1.000
    O29     O    0.69646   0.65532   0.20372   1.000
    O30     O    0.30333   0.55195   0.20436   1.000
    O31     O    0.55605   0.52099   0.99990   1.000
    N32     N    0.12812   0.54871   0.99980   1.000
    N33     N    0.87190   0.45138   0.00022   1.000
    O34     O    0.80370   0.34399   0.79622   1.000
    O35     O    0.80346   0.55098   0.20434   1.000
    O36     O    0.19632   0.65610   0.20380   1.000
    O37     O    0.19657   0.44911   0.79568   1.000
    O38     O    0.05599   0.52130   0.99990   1.000
    N39     N    0.87192   0.54789   0.54807   1.000
    N40     N    0.12810   0.45220   0.45196   1.000
    O41     O    0.80362   0.44850   0.65456   1.000
    O42     O    0.19645   0.34545   0.55076   1.000
    O43     O    0.80357   0.65465   0.44927   1.000
    O44     O    0.19641   0.55159   0.34545   1.000
    O45     O    0.05598   0.47915   0.47903   1.000
loop_
    _geom_bond_atom_site_label_1
    _geom_bond_atom_site_label_2
    _geom_bond_distance
    _geom_bond_site_symmetry_2
    _ccdc_geom_bond_type
    N4     O6        2.78937  1_545   S
    Zr0    O6        2.01120      .   S
    N5     O7        2.78197      .   S
    Zr1    O7        2.00713      .   S
    N5     O8        2.78958  1_565   S
    Zr3    O8        2.01138      .   S
    N4     O9        2.78230      .   S
    Zr2    O9        2.00707      .   S
    N5     O10       4.12476  1_665   S
    N4     O10       1.61634      .   S
    N11    O13       2.79036      .   S
    Zr2    O13       2.01226      .   S
    N12    O14       2.79015      .   S
    Zr1    O14       2.01230      .   S
    N11    O15       2.78144  1_545   S
    Zr0    O15       2.00694      .   S
    N12    O16       2.78176  1_565   S
    Zr3    O16       2.00685      .   S
    N11    O17       4.12482  1_545   S
    N12    O17       1.61633      .   S
    N19    O20       2.78708      .   S
    Zr3    O20       2.01130      .   S
    N19    O21       2.78580      .   S
    Zr1    O21       2.01017      .   S
    N18    O22       2.78708      .   S
    Zr0    O22       2.01131      .   S
    N18    O23       2.78578      .   S
    Zr2    O23       2.01016      .   S
    N18    O24       4.12492      .   S
    N19    O24       1.61637      .   S
    N25    O27       2.78941      .   S
    Zr3    O27       2.01106      .   S
    N26    O28       2.78251  1_554   S
    Zr2    O28       2.00745      .   S
    N25    O29       2.78278  1_556   S
    Zr1    O29       2.00750      .   S
    N26    O30       2.78969      .   S
    Zr0    O30       2.01108      .   S
    N26    O31       4.12519  1_554   S
    N25    O31       1.61652      .   S
    N33    O34       2.78335  1_554   S
    Zr3    O34       2.00903      .   S
    N33    O35       2.78948      .   S
    Zr1    O35       2.01210      .   S
    N32    O36       2.78336  1_556   S
    Zr0    O36       2.00907      .   S
    N32    O37       2.78944      .   S
    Zr2    O37       2.01208      .   S
    N33    O38       4.12403  1_654   S
    N32    O38       1.61600      .   S
    N39    O41       2.78675      .   S
    Zr3    O41       2.00995      .   S
    N40    O42       2.78593      .   S
    Zr2    O42       2.01040      .   S
    N39    O43       2.78598      .   S
    Zr1    O43       2.01035      .   S
    N40    O44       2.78679      .   S
    Zr0    O44       2.00996      .   S
    N39    O45       4.12475  1_655   S
    N40    O45       1.61634      .   S
