# CIF file generated by openbabel 2.4.90, see http://openbabel.sf.net
data_I
_chemical_name_common ''
_cell_length_a 13.273
_cell_length_b 14.197
_cell_length_c 17.285
_cell_angle_alpha 66.122
_cell_angle_beta 87.262
_cell_angle_gamma 89.829
_space_group_name_H-M_alt 'P 1'
_space_group_name_Hall 'P 1'
loop_
    _symmetry_equiv_pos_as_xyz
    x,y,z
loop_
    _atom_site_label
    _atom_site_type_symbol
    _atom_site_fract_x
    _atom_site_fract_y
    _atom_site_fract_z
    _atom_site_occupancy
    C0      C    0.22049   0.87388   0.22824   1.000
    C1      C    0.95458   0.67704   0.15649   1.000
    C2      C    0.26908   0.04467   0.37613   1.000
    C3      C    0.04302   0.33646   0.35340   1.000
    C4      C    0.44334   0.75796   0.39799   1.000
    C5      C    0.71543   0.55755   0.32700   1.000
    C6      C    0.78031   0.38969   0.17409   1.000
    C7      C    0.55303   0.09714   0.19720   1.000
    C8      C    0.78015   0.12605   0.77294   1.000
    C9      C    0.04939   0.32101   0.84393   1.000
    C10     C    0.73075   0.95546   0.62478   1.000
    C11     C    0.95465   0.66211   0.64853   1.000
    C12     C    0.55680   0.24174   0.60294   1.000
    C13     C    0.28624   0.44413   0.67292   1.000
    C14     C    0.21820   0.61081   0.82571   1.000
    C15     C    0.44696   0.90225   0.80359   1.000
