# CIF file generated by openbabel 2.4.90, see http://openbabel.sf.net
data_I
_chemical_name_common ''
_cell_length_a 9.6555
_cell_length_b 14.871
_cell_length_c 15.415
_cell_angle_alpha 89.996
_cell_angle_beta 89.972
_cell_angle_gamma 89.963
_space_group_name_H-M_alt 'P 1'
_space_group_name_Hall 'P 1'
loop_
    _symmetry_equiv_pos_as_xyz
    x,y,z
loop_
    _atom_site_label
    _atom_site_type_symbol
    _atom_site_fract_x
    _atom_site_fract_y
    _atom_site_fract_z
    _atom_site_occupancy
    N0      N    0.89467   0.77529   0.49368   1.000
    N1      N    0.89451   0.22474   0.50370   1.000
    N2      N    0.39374   0.51879   0.78392   1.000
    N3      N    0.60590   0.98127   0.28393   1.000
    N4      N    0.60604   0.01880   0.71422   1.000
    N5      N    0.10517   0.27532   0.00377   1.000
    N6      N    0.10492   0.72470   0.99336   1.000
    N7      N    0.39346   0.48119   0.21419   1.000
    Zr8     Zr   0.87623   0.00676   0.61588   1.000
    O9      O    0.88037   0.07262   0.57242   1.000
    O10     O    0.90139   0.07441   0.59051   1.000
    O11     O    0.88046   0.93585   0.57147   1.000
    O12     O    0.80303   0.99775   0.65457   1.000
    O13     O    0.77788   0.00882   0.63755   1.000
    O14     O    0.79156   0.01972   0.65516   1.000
    Zr15    Zr   0.87621   0.99346   0.38199   1.000
    O16     O    0.88036   0.06431   0.42624   1.000
    O17     O    0.90135   0.92573   0.40713   1.000
    O18     O    0.88045   0.92754   0.42529   1.000
    O19     O    0.80290   0.00243   0.34342   1.000
    O20     O    0.77778   0.99140   0.36042   1.000
    O21     O    0.79150   0.98043   0.34289   1.000
    Zr22    Zr   0.62563   0.87824   0.49906   1.000
    O23     O    0.72384   0.85552   0.49846   1.000
    O24     O    0.59957   0.90076   0.43308   1.000
    O25     O    0.62116   0.91939   0.43359   1.000
    O26     O    0.62126   0.92849   0.56454   1.000
    O27     O    0.70977   0.83646   0.48933   1.000
    O28     O    0.69874   0.83891   0.51042   1.000
    Zr29    Zr   0.12318   0.49324   0.11606   1.000
    O30     O    0.11900   0.56415   0.07088   1.000
    O31     O    0.19642   0.50224   0.15470   1.000
    O32     O    0.09804   0.42563   0.09063   1.000
    O33     O    0.20789   0.48027   0.15527   1.000
    O34     O    0.11916   0.42740   0.07256   1.000
    O35     O    0.22155   0.49117   0.13765   1.000
    Zr36    Zr   0.75664   0.73127   0.77957   1.000
    O37     O    0.85992   0.73178   0.84814   1.000
    O38     O    0.64891   0.66289   0.77938   1.000
    O39     O    0.70422   0.81964   0.76538   1.000
    O40     O    0.80487   0.73882   0.69206   1.000
    Zr41    Zr   0.24290   0.23155   0.71788   1.000
    O42     O    0.19481   0.23901   0.80543   1.000
    O43     O    0.13966   0.23194   0.64915   1.000
    O44     O    0.29536   0.31986   0.73218   1.000
    O45     O    0.35076   0.16311   0.71836   1.000
    Zr46    Zr   0.12337   0.50657   0.88221   1.000
    O47     O    0.11927   0.43573   0.92641   1.000
    O48     O    0.09815   0.57425   0.90726   1.000
    O49     O    0.19671   0.49761   0.84357   1.000
    O50     O    0.20809   0.51961   0.84304   1.000
    O51     O    0.22182   0.50864   0.86055   1.000
    O52     O    0.11911   0.57248   0.92472   1.000
    Zr53    Zr   0.37396   0.62174   0.99899   1.000
    O54     O    0.27573   0.64446   0.99771   1.000
    O55     O    0.30087   0.66107   0.01028   1.000
    O56     O    0.37845   0.58062   0.93354   1.000
    O57     O    0.40004   0.59924   0.93301   1.000
    O58     O    0.28982   0.66351   0.98920   1.000
    O59     O    0.37828   0.57148   0.06448   1.000
    Zr60    Zr   0.24317   0.76869   0.27945   1.000
    O61     O    0.13983   0.76821   0.34814   1.000
    O62     O    0.29550   0.68033   0.26528   1.000
    O63     O    0.35084   0.83710   0.27933   1.000
    O64     O    0.19489   0.76116   0.19190   1.000
    Zr65    Zr   0.75651   0.26856   0.21787   1.000
    O66     O    0.64864   0.33696   0.21834   1.000
    O67     O    0.70414   0.18024   0.23217   1.000
    O68     O    0.80472   0.26108   0.30538   1.000
    O69     O    0.85981   0.26816   0.14915   1.000
    Zr70    Zr   0.37459   0.37777   0.99884   1.000
    O71     O    0.27629   0.35523   0.99930   1.000
    O72     O    0.30136   0.33863   0.98729   1.000
    O73     O    0.29030   0.33617   0.00846   1.000
    O74     O    0.37884   0.42814   0.93344   1.000
    O75     O    0.40043   0.40043   0.06490   1.000
    O76     O    0.37867   0.41900   0.06438   1.000
    Zr77    Zr   0.62512   0.12228   0.49885   1.000
    O78     O    0.72343   0.14482   0.49928   1.000
    O79     O    0.70939   0.16388   0.50844   1.000
    O80     O    0.69836   0.16141   0.48727   1.000
    O81     O    0.62085   0.07191   0.43346   1.000
    O82     O    0.59922   0.09960   0.56494   1.000
    O83     O    0.62094   0.08102   0.56441   1.000
loop_
    _geom_bond_atom_site_label_1
    _geom_bond_atom_site_label_2
    _geom_bond_distance
    _geom_bond_site_symmetry_2
    _ccdc_geom_bond_type
    Zr8    O9        1.18730      .   S
    N1     O9        2.50167      .   S
    Zr8    O10       1.10643      .   S
    N1     O10       2.60631      .   S
    Zr8    O11       1.25783  1_545   S
    N0     O11       2.67540      .   S
    Zr8    O12       0.93435  1_545   S
    N4     O12       2.13512  1_545   S
    Zr8    O13       1.00693      .   S
    N4     O13       2.04202      .   S
    Zr8    O14       1.03516      .   S
    N4     O14       2.00905      .   S
    Zr15   O16       1.25584  1_565   S
    N1     O16       2.67152      .   S
    Zr15   O17       1.10607      .   S
    N0     O17       2.60554      .   S
    Zr15   O18       1.18663      .   S
    N0     O18       2.50116      .   S
    Zr15   O19       0.93419  1_565   S
    N3     O19       2.13555  1_565   S
    Zr15   O20       1.00756      .   S
    N3     O20       2.04193      .   S
    Zr15   O21       1.03478      .   S
    N3     O21       2.00975      .   S
    Zr22   O23       1.00644      .   S
    N0     O23       2.03650      .   S
    Zr22   O24       1.10008      .   S
    N3     O24       2.59277      .   S
    Zr22   O25       1.18104      .   S
    N3     O25       2.48808      .   S
    Zr22   O26       1.25662      .   S
    N4     O26       2.67368  1_545   S
    Zr22   O27       1.03329      .   S
    N0     O27       2.00437      .   S
    Zr22   O28       0.93305      .   S
    N0     O28       2.13025      .   S
    Zr29   O30       1.26433      .   S
    N6     O30       2.67318  1_556   S
    Zr29   O31       0.93451      .   S
    N7     O31       2.13526      .   S
    Zr29   O32       1.10638      .   S
    N5     O32       2.60655      .   S
    Zr29   O33       1.03525      .   S
    N7     O33       2.00924      .   S
    Zr29   O34       1.18746      .   S
    N5     O34       2.50168      .   S
    Zr29   O35       1.00697      .   S
    N7     O35       2.04227      .   S
    Zr36   O37       1.45364      .   S
    N6     O37       3.25926  1_455   S
    Zr36   O38       1.45517      .   S
    N2     O38       3.26714      .   S
    Zr36   O39       1.42476      .   S
    N4     O39       3.20765  1_545   S
    Zr36   O40       1.43130      .   S
    N0     O40       3.22414      .   S
    Zr41   O42       1.43129      .   S
    N5     O42       3.22256  1_554   S
    Zr41   O43       1.45512      .   S
    N1     O43       3.26300  1_655   S
    Zr41   O44       1.42497      .   S
    N2     O44       3.20854      .   S
    Zr41   O45       1.45577      .   S
    N4     O45       3.26773      .   S
    Zr46   O47       1.25517      .   S
    N5     O47       2.67039  1_554   S
    Zr46   O48       1.10497      .   S
    N6     O48       2.60239      .   S
    Zr46   O49       0.93459      .   S
    N2     O49       2.13616      .   S
    Zr46   O50       1.03499      .   S
    N2     O50       2.01052      .   S
    Zr46   O51       1.00792      .   S
    N2     O51       2.04256      .   S
    Zr46   O52       1.17977      .   S
    N6     O52       2.50244      .   S
    Zr53   O54       1.00686      .   S
    N6     O54       2.03623      .   S
    Zr53   O55       0.93266  1_556   S
    N6     O55       2.13106  1_556   S
    Zr53   O56       1.18053      .   S
    N2     O56       2.48726      .   S
    Zr53   O57       1.09975      .   S
    N2     O57       2.59183      .   S
    Zr53   O58       1.03353      .   S
    N6     O58       2.00436      .   S
    Zr53   O59       1.25671  1_556   S
    N7     O59       2.67386      .   S
    Zr60   O61       1.45458      .   S
    N0     O61       3.26218  1_655   S
    Zr60   O62       1.42428      .   S
    N7     O62       3.20640      .   S
    Zr60   O63       1.45508      .   S
    N3     O63       3.26698      .   S
    Zr60   O64       1.43243      .   S
    N6     O64       3.22781  1_556   S
    Zr65   O66       1.45532      .   S
    N7     O66       3.26634      .   S
    Zr65   O67       1.42484      .   S
    N3     O67       3.20841  1_565   S
    Zr65   O68       1.43154      .   S
    N1     O68       3.22349      .   S
    Zr65   O69       1.45468      .   S
    N5     O69       3.26208  1_455   S
    Zr70   O71       1.00682      .   S
    N5     O71       2.03694  1_554   S
    Zr70   O72       0.93323      .   S
    N5     O72       2.13106  1_554   S
    Zr70   O73       1.03317  1_556   S
    N5     O73       2.00544      .   S
    Zr70   O74       1.25650      .   S
    N2     O74       2.67391      .   S
    Zr70   O75       1.10154  1_556   S
    N7     O75       2.59666      .   S
    Zr70   O76       1.18265  1_556   S
    N7     O76       2.49176      .   S
    Zr77   O78       1.00690      .   S
    N1     O78       2.03682      .   S
    Zr77   O79       1.03321      .   S
    N1     O79       2.00531      .   S
    Zr77   O80       0.93326      .   S
    N1     O80       2.13097      .   S
    Zr77   O81       1.25659      .   S
    N3     O81       2.67424  1_565   S
    Zr77   O82       1.10168      .   S
    N4     O82       2.59682      .   S
    Zr77   O83       1.18281      .   S
    N4     O83       2.49191      .   S
