# CIF file generated by openbabel 2.4.90, see http://openbabel.sf.net
data_I
_chemical_name_common ''
_cell_length_a 14.277
_cell_length_b 14.864
_cell_length_c 15.152
_cell_angle_alpha 90.015
_cell_angle_beta 90.487
_cell_angle_gamma 90.041
_space_group_name_H-M_alt 'P 1'
_space_group_name_Hall 'P 1'
loop_
    _symmetry_equiv_pos_as_xyz
    x,y,z
loop_
    _atom_site_label
    _atom_site_type_symbol
    _atom_site_fract_x
    _atom_site_fract_y
    _atom_site_fract_z
    _atom_site_occupancy
    C0      C    0.18113   0.69069   0.79992   1.000
    C1      C    0.05764   0.56268   0.90800   1.000
    C2      C    0.31666   0.31204   0.30055   1.000
    C3      C    0.44080   0.43754   0.41152   1.000
    C4      C    0.81877   0.19065   0.70006   1.000
    C5      C    0.94214   0.06267   0.59190   1.000
    C6      C    0.68330   0.81212   0.19945   1.000
    C7      C    0.55919   0.93751   0.08844   1.000
    C8      C    0.90878   0.77320   0.00000   1.000
    C9      C    0.76775   0.01864   0.93682   1.000
    C10     C    0.00000   0.92390   0.78408   1.000
    C11     C    0.59052   0.22684   0.51092   1.000
    C12     C    0.73180   0.98293   0.43571   1.000
    C13     C    0.49615   0.07829   0.28283   1.000
    C14     C    0.09105   0.27319   0.48994   1.000
    C15     C    0.23213   0.51887   0.56294   1.000
    C16     C    0.99882   0.42394   0.71580   1.000
    C17     C    0.40933   0.72665   0.98908   1.000
    C18     C    0.26806   0.48252   0.06416   1.000
    C19     C    0.50387   0.57810   0.21694   1.000
    C20     C    0.96249   0.84106   0.89507   1.000
    C21     C    0.90179   0.83117   0.96655   1.000
    C22     C    0.83212   0.89547   0.98198   1.000
    C23     C    0.82258   0.96932   0.92527   1.000
    C24     C    0.88349   0.97960   0.85403   1.000
    C25     C    0.95377   0.91575   0.83937   1.000
    C26     C    0.03550   0.77150   0.87805   1.000
    C27     C    0.76687   0.88554   0.05768   1.000
    C28     C    0.87347   0.05691   0.79271   1.000
    C29     C    0.53560   0.15991   0.39513   1.000
    C30     C    0.59720   0.16935   0.46696   1.000
    C31     C    0.66749   0.10529   0.48190   1.000
    C32     C    0.67653   0.03209   0.42452   1.000
    C33     C    0.61478   0.02237   0.35288   1.000
    C34     C    0.54403   0.08600   0.33855   1.000
    C35     C    0.46215   0.22923   0.37836   1.000
    C36     C    0.73416   0.11503   0.55764   1.000
    C37     C    0.62472   0.94603   0.29059   1.000
    C38     C    0.03740   0.34109   0.60480   1.000
    C39     C    0.09807   0.33121   0.53331   1.000
    C40     C    0.16775   0.39557   0.51785   1.000
    C41     C    0.17729   0.46949   0.57452   1.000
    C42     C    0.11641   0.47976   0.64577   1.000
    C43     C    0.04615   0.41583   0.66049   1.000
    C44     C    0.96441   0.27147   0.62188   1.000
    C45     C    0.23306   0.38560   0.44220   1.000
    C46     C    0.12651   0.55708   0.70709   1.000
    C47     C    0.46436   0.65973   0.10475   1.000
    C48     C    0.40268   0.66912   0.03298   1.000
    C49     C    0.33237   0.60499   0.01801   1.000
    C50     C    0.32336   0.53173   0.07534   1.000
    C51     C    0.38518   0.52207   0.14693   1.000
    C52     C    0.45595   0.58578   0.16126   1.000
    C53     C    0.53781   0.72915   0.12157   1.000
    C54     C    0.26558   0.61473   0.94238   1.000
    C55     C    0.37523   0.44578   0.20925   1.000
    C56     C    0.08977   0.78551   0.81147   1.000
    C57     C    0.04117   0.70365   0.92867   1.000
    C58     C    0.77759   0.81584   0.10745   1.000
    C59     C    0.70483   0.94551   0.07000   1.000
    C60     C    0.80230   0.10965   0.80109   1.000
    C61     C    0.93475   0.07028   0.73319   1.000
    C62     C    0.40729   0.21580   0.31128   1.000
    C63     C    0.45664   0.29653   0.42969   1.000
    C64     C    0.72431   0.18497   0.60713   1.000
    C65     C    0.79617   0.05488   0.56992   1.000
    C66     C    0.69624   0.89357   0.29991   1.000
    C67     C    0.56356   0.93355   0.22995   1.000
    C68     C    0.91023   0.28547   0.68851   1.000
    C69     C    0.95874   0.20356   0.57129   1.000
    C70     C    0.22235   0.31580   0.39251   1.000
    C71     C    0.29518   0.44557   0.42990   1.000
    C72     C    0.19767   0.60990   0.69864   1.000
    C73     C    0.06533   0.57034   0.76673   1.000
    C74     C    0.59262   0.71580   0.18869   1.000
    C75     C    0.54330   0.79646   0.07029   1.000
    C76     C    0.27561   0.68454   0.89270   1.000
    C77     C    0.20326   0.55475   0.93032   1.000
    C78     C    0.30372   0.39321   0.19996   1.000
    C79     C    0.43634   0.43352   0.26996   1.000
    O80     O    0.90529   0.80218   0.98328   1.000
    O81     O    0.36752   0.63706   0.02550   1.000
    O82     O    0.32786   0.56836   0.04668   1.000
    O83     O    0.29897   0.60986   0.98020   1.000
    O84     O    0.43352   0.66443   0.06886   1.000
    O85     O    0.40600   0.69789   0.01103   1.000
    O86     O    0.73585   0.91553   0.06384   1.000
    O87     O    0.77223   0.85069   0.08257   1.000
    O88     O    0.79949   0.89051   0.01983   1.000
    O89     O    0.29571   0.50713   0.06975   1.000
    O90     O    0.63201   0.94151   0.07922   1.000
    O91     O    0.55124   0.86699   0.07937   1.000
    O92     O    0.54055   0.76281   0.09593   1.000
    O93     O    0.35427   0.52690   0.11114   1.000
    O94     O    0.56137   0.93553   0.15920   1.000
    O95     O    0.50108   0.69444   0.11316   1.000
    O96     O    0.46015   0.62275   0.13300   1.000
    O97     O    0.73044   0.81398   0.15345   1.000
    O98     O    0.56522   0.72247   0.15513   1.000
    O99     O    0.42057   0.55393   0.15409   1.000
    O100    O    0.38021   0.48393   0.17809   1.000
    O101    O    0.47991   0.58194   0.18910   1.000
    O102    O    0.63796   0.76396   0.19407   1.000
    O103    O    0.68977   0.85285   0.24968   1.000
    O104    O    0.33948   0.41950   0.20461   1.000
    O105    O    0.31019   0.35262   0.25026   1.000
    O106    O    0.40579   0.43965   0.23961   1.000
    O107    O    0.59414   0.93979   0.26027   1.000
    O108    O    0.43857   0.43553   0.34074   1.000
    O109    O    0.52009   0.08214   0.31069   1.000
    O110    O    0.66048   0.91980   0.29525   1.000
    O111    O    0.61975   0.98420   0.32174   1.000
    O112    O    0.36197   0.26392   0.30592   1.000
    O113    O    0.26951   0.31392   0.34653   1.000
    O114    O    0.43472   0.22251   0.34482   1.000
    O115    O    0.57941   0.05418   0.34572   1.000
    O116    O    0.53982   0.12295   0.36684   1.000
    O117    O    0.64566   0.02723   0.38870   1.000
    O118    O    0.49888   0.19457   0.38675   1.000
    O119    O    0.45940   0.26288   0.40403   1.000
    O120    O    0.22771   0.35070   0.41736   1.000
    O121    O    0.56640   0.16463   0.43104   1.000
    O122    O    0.44872   0.36703   0.42061   1.000
    O123    O    0.36799   0.44155   0.42071   1.000
    O124    O    0.70417   0.00751   0.43011   1.000
    O125    O    0.67201   0.06869   0.45321   1.000
    O126    O    0.26412   0.41559   0.43605   1.000
    O127    O    0.20041   0.39059   0.48003   1.000
    O128    O    0.63235   0.13732   0.47443   1.000
    O129    O    0.59386   0.19810   0.48894   1.000
    O130    O    0.70082   0.11016   0.51977   1.000
    O131    O    0.09456   0.30220   0.51163   1.000
    O132    O    0.13291   0.36339   0.52558   1.000
    O133    O    0.17252   0.43253   0.54619   1.000
    O134    O    0.06773   0.33615   0.56906   1.000
    O135    O    0.76517   0.08495   0.56378   1.000
    O136    O    0.72924   0.15000   0.58239   1.000
    O137    O    0.20471   0.49418   0.56873   1.000
    O138    O    0.86916   0.05877   0.58091   1.000
    O139    O    0.95044   0.13311   0.58159   1.000
    O140    O    0.96157   0.23752   0.59659   1.000
    O141    O    0.14685   0.47462   0.61015   1.000
    O142    O    0.93845   0.06647   0.66255   1.000
    O143    O    0.00090   0.30628   0.61334   1.000
    O144    O    0.04178   0.37846   0.63265   1.000
    O145    O    0.77154   0.18781   0.65359   1.000
    O146    O    0.93732   0.27847   0.65520   1.000
    O147    O    0.08128   0.44779   0.65313   1.000
    O148    O    0.12146   0.51842   0.67643   1.000
    O149    O    0.02249   0.41988   0.68815   1.000
    O150    O    0.86450   0.23806   0.69429   1.000
    O151    O    0.16209   0.58349   0.70286   1.000
    O152    O    0.18940   0.65029   0.74928   1.000
    O153    O    0.81053   0.15015   0.75058   1.000
    O154    O    0.09592   0.56371   0.73691   1.000
    O155    O    0.90411   0.06360   0.76295   1.000
    O156    O    0.06149   0.56651   0.83737   1.000
    O157    O    0.97688   0.91982   0.81173   1.000
    O158    O    0.83788   0.08328   0.79690   1.000
    O159    O    0.87848   0.01826   0.82337   1.000
    O160    O    0.13545   0.73810   0.80570   1.000
    O161    O    0.22837   0.68762   0.84631   1.000
    O162    O    0.06264   0.77851   0.84476   1.000
    O163    O    0.91863   0.94767   0.84670   1.000
    O164    O    0.95813   0.87840   0.86722   1.000
    O165    O    0.85304   0.97446   0.88965   1.000
    O166    O    0.99900   0.80628   0.88656   1.000
    O167    O    0.03834   0.73757   0.90336   1.000
    O168    O    0.27059   0.64964   0.91754   1.000
    O169    O    0.93214   0.83611   0.93081   1.000
    O170    O    0.04940   0.63316   0.91834   1.000
    O171    O    0.13045   0.55871   0.91916   1.000
    O172    O    0.79517   0.99398   0.93105   1.000
    O173    O    0.82735   0.93240   0.95363   1.000
    O174    O    0.23442   0.58474   0.93635   1.000
    O175    O    0.86695   0.86332   0.97427   1.000
loop_
    _geom_bond_atom_site_label_1
    _geom_bond_atom_site_label_2
    _geom_bond_distance
    _geom_bond_site_symmetry_2
    _ccdc_geom_bond_type
    C8     O80       0.50221  1_554   S
    C21    O80       0.50221      .   S
    C49    O81       0.70046      .   S
    C48    O81       0.70046      .   S
    C49    O82       0.69981      .   S
    C50    O82       0.69981      .   S
    C49    O83       0.74587  1_554   S
    C54    O83       0.74587      .   S
    C48    O84       0.70026      .   S
    C47    O84       0.70026      .   S
    C48    O85       0.54401      .   S
    C17    O85       0.54401  1_556   S
    C27    O86       0.63592      .   S
    C59    O86       0.63592      .   S
    C27    O87       0.64505      .   S
    C58    O87       0.64505      .   S
    C27    O88       0.74554      .   S
    C22    O88       0.74554  1_556   S
    C18    O89       0.54402      .   S
    C50    O89       0.54402      .   S
    C59    O90       1.05183      .   S
    C7     O90       1.05183      .   S
    C75    O91       1.06304      .   S
    C7     O91       1.06304      .   S
    C75    O92       0.63490      .   S
    C53    O92       0.63490      .   S
    C50    O93       0.70007      .   S
    C51    O93       0.70007      .   S
    C7     O94       1.07268      .   S
    C67    O94       1.07268      .   S
    C47    O95       0.74551      .   S
    C53    O95       0.74551      .   S
    C47    O96       0.69963      .   S
    C52    O96       0.69963      .   S
    C58    O97       0.97344      .   S
    C6     O97       0.97344      .   S
    C53    O98       0.64672      .   S
    C74    O98       0.64672      .   S
    C51    O99       0.69987      .   S
    C52    O99       0.69987      .   S
    C51    O100      0.74170      .   S
    C55    O100      0.74170      .   S
    C52    O101      0.54389      .   S
    C19    O101      0.54389      .   S
    C74    O102      0.96775      .   S
    C6     O102      0.96775      .   S
    C6     O103      0.97604      .   S
    C66    O103      0.97604      .   S
    C78    O104      0.64597      .   S
    C55    O104      0.64597      .   S
    C78    O105      0.97588      .   S
    C2     O105      0.97588      .   S
    C55    O106      0.63784      .   S
    C79    O106      0.63784      .   S
    C67    O107      0.63780      .   S
    C37    O107      0.63780      .   S
    C79    O108      1.07307      .   S
    C3     O108      1.07307      .   S
    C13    O109      0.54391      .   S
    C34    O109      0.54391      .   S
    C37    O110      0.64596      .   S
    C66    O110      0.64596      .   S
    C37    O111      0.74174      .   S
    C33    O111      0.74174  1_545   S
    C2     O112      0.96779      .   S
    C62    O112      0.96779      .   S
    C2     O113      0.97331      .   S
    C70    O113      0.97331      .   S
    C62    O114      0.64664      .   S
    C35    O114      0.64664      .   S
    C34    O115      0.69988      .   S
    C33    O115      0.69988      .   S
    C34    O116      0.69964      .   S
    C29    O116      0.69964      .   S
    C33    O117      0.70000      .   S
    C32    O117      0.70000      .   S
    C35    O118      0.74547      .   S
    C29    O118      0.74547      .   S
    C35    O119      0.63493      .   S
    C63    O119      0.63493      .   S
    C70    O120      0.64498      .   S
    C45    O120      0.64498      .   S
    C29    O121      0.70022      .   S
    C30    O121      0.70022      .   S
    C3     O122      1.06300      .   S
    C63    O122      1.06300      .   S
    C3     O123      1.05165      .   S
    C71    O123      1.05165      .   S
    C32    O124      0.54402      .   S
    C12    O124      0.54402  1_565   S
    C32    O125      0.69971      .   S
    C31    O125      0.69971      .   S
    C71    O126      0.63593      .   S
    C45    O126      0.63593      .   S
    C45    O127      0.74559      .   S
    C40    O127      0.74559      .   S
    C30    O128      0.70041      .   S
    C31    O128      0.70041      .   S
    C30    O129      0.54404      .   S
    C11    O129      0.54404      .   S
    C31    O130      0.74585      .   S
    C36    O130      0.74585      .   S
    C14    O131      0.54408      .   S
    C39    O131      0.54408      .   S
    C40    O132      0.70047      .   S
    C39    O132      0.70047      .   S
    C40    O133      0.70008      .   S
    C41    O133      0.70008      .   S
    C39    O134      0.70021      .   S
    C38    O134      0.70021      .   S
    C36    O135      0.63559      .   S
    C65    O135      0.63559      .   S
    C36    O136      0.64510      .   S
    C64    O136      0.64510      .   S
    C15    O137      0.54407      .   S
    C41    O137      0.54407      .   S
    C65    O138      1.05539      .   S
    C5     O138      1.05539      .   S
    C69    O139      1.06543      .   S
    C5     O139      1.06543      .   S
    C69    O140      0.63474      .   S
    C44    O140      0.63474      .   S
    C41    O141      0.70006      .   S
    C42    O141      0.70006      .   S
    C5     O142      1.07364      .   S
    C61    O142      1.07364      .   S
    C38    O143      0.74616      .   S
    C44    O143      0.74616  1_655   S
    C38    O144      0.69982      .   S
    C43    O144      0.69982      .   S
    C64    O145      0.97156      .   S
    C4     O145      0.97156      .   S
    C44    O146      0.64697      .   S
    C68    O146      0.64697      .   S
    C42    O147      0.70025      .   S
    C43    O147      0.70025      .   S
    C42    O148      0.74196      .   S
    C46    O148      0.74196      .   S
    C43    O149      0.54389      .   S
    C16    O149      0.54389  1_655   S
    C68    O150      0.96486      .   S
    C4     O150      0.96486      .   S
    C72    O151      0.64538      .   S
    C46    O151      0.64538      .   S
    C72    O152      0.98218      .   S
    C0     O152      0.98218      .   S
    C4     O153      0.98167      .   S
    C60    O153      0.98167      .   S
    C46    O154      0.63872      .   S
    C73    O154      0.63872      .   S
    C61    O155      0.63864      .   S
    C28    O155      0.63864      .   S
    C73    O156      1.07366      .   S
    C1     O156      1.07366      .   S
    C10    O157      0.53886  1_455   S
    C25    O157      0.53886      .   S
    C28    O158      0.64543      .   S
    C60    O158      0.64543      .   S
    C28    O159      0.74213      .   S
    C24    O159      0.74213  1_565   S
    C0     O160      0.96500      .   S
    C56    O160      0.96500      .   S
    C0     O161      0.97113      .   S
    C76    O161      0.97113      .   S
    C56    O162      0.64699      .   S
    C26    O162      0.64699      .   S
    C25    O163      0.70032      .   S
    C24    O163      0.70032      .   S
    C25    O164      0.69986      .   S
    C20    O164      0.69986      .   S
    C24    O165      0.70010      .   S
    C23    O165      0.70010      .   S
    C26    O166      0.74632  1_455   S
    C20    O166      0.74632      .   S
    C26    O167      0.63475      .   S
    C57    O167      0.63475      .   S
    C76    O168      0.64535      .   S
    C54    O168      0.64535      .   S
    C20    O169      0.70026      .   S
    C21    O169      0.70026      .   S
    C1     O170      1.06602      .   S
    C57    O170      1.06602      .   S
    C1     O171      1.05342      .   S
    C77    O171      1.05342      .   S
    C23    O172      0.54407      .   S
    C9     O172      0.54407  1_545   S
    C23    O173      0.70011      .   S
    C22    O173      0.70011      .   S
    C77    O174      0.63562      .   S
    C54    O174      0.63562      .   S
    C21    O175      0.70051      .   S
    C22    O175      0.70051      .   S
