# CIF file generated by openbabel 2.4.90, see http://openbabel.sf.net
data_I
_chemical_name_common ''
_cell_length_a 19.673
_cell_length_b 24.252
_cell_length_c 15.389
_cell_angle_alpha 96.079
_cell_angle_beta 98.001
_cell_angle_gamma 113.54
_space_group_name_H-M_alt 'P 1'
_space_group_name_Hall 'P 1'
loop_
    _symmetry_equiv_pos_as_xyz
    x,y,z
loop_
    _atom_site_label
    _atom_site_type_symbol
    _atom_site_fract_x
    _atom_site_fract_y
    _atom_site_fract_z
    _atom_site_occupancy
    C0      C    0.82513   0.88175   0.63048   1.000
    C1      C    0.38740   0.10499   0.64877   1.000
    C2      C    0.38752   0.60517   0.64871   1.000
    C3      C    0.88743   0.10499   0.64874   1.000
    C4      C    0.22473   0.41568   0.08605   1.000
    C5      C    0.22477   0.91568   0.08600   1.000
    C6      C    0.72474   0.41568   0.08605   1.000
    C7      C    0.72479   0.91568   0.08600   1.000
    C8      C    0.09387   0.37691   0.74147   1.000
    C9      C    0.09418   0.87682   0.74141   1.000
    C10     C    0.59388   0.37691   0.74147   1.000
    C11     C    0.59419   0.87682   0.74142   1.000
    C12     C    0.27526   0.08430   0.91393   1.000
    C13     C    0.27530   0.58430   0.91390   1.000
    C14     C    0.77528   0.08430   0.91393   1.000
    C15     C    0.77532   0.58430   0.91390   1.000
    C16     C    0.32484   0.38192   0.63074   1.000
    C17     C    0.32511   0.88175   0.63050   1.000
    C18     C    0.82486   0.38192   0.63072   1.000
    C19     C    0.88754   0.60516   0.64870   1.000
    C20     C    0.40586   0.12316   0.25854   1.000
    C21     C    0.40618   0.62306   0.25840   1.000
    C22     C    0.90587   0.12316   0.25854   1.000
    C23     C    0.90619   0.62306   0.25848   1.000
    C24     C    0.17494   0.11823   0.36945   1.000
    C25     C    0.17520   0.61806   0.36919   1.000
    C26     C    0.67495   0.11823   0.36945   1.000
    C27     C    0.67520   0.61806   0.36922   1.000
    C28     C    0.11253   0.39481   0.35123   1.000
    C29     C    0.11264   0.89499   0.35119   1.000
    C30     C    0.61253   0.39482   0.35126   1.000
    C31     C    0.61265   0.89499   0.35120   1.000
