# CIF file generated by openbabel 2.4.90, see http://openbabel.sf.net
data_I
_chemical_name_common ''
_cell_length_a 15.131
_cell_length_b 14.406
_cell_length_c 21.129
_cell_angle_alpha 90.026
_cell_angle_beta 90.03
_cell_angle_gamma 92.656
_space_group_name_H-M_alt 'P 1'
_space_group_name_Hall 'P 1'
loop_
    _symmetry_equiv_pos_as_xyz
    x,y,z
loop_
    _atom_site_label
    _atom_site_type_symbol
    _atom_site_fract_x
    _atom_site_fract_y
    _atom_site_fract_z
    _atom_site_occupancy
    Cd0     Cd   0.74444   0.39660   0.56572   1.000
    Cd1     Cd   0.25577   0.10342   0.06569   1.000
    Cd2     Cd   0.75578   0.10342   0.06569   1.000
    Cd3     Cd   0.25557   0.60337   0.43426   1.000
    Cd4     Cd   0.75558   0.60337   0.43420   1.000
    Cd5     Cd   0.24423   0.89655   0.93430   1.000
    Cd6     Cd   0.74424   0.89655   0.93430   1.000
    Cd7     Cd   0.24443   0.39661   0.56570   1.000
