# CIF file generated by openbabel 2.4.90, see http://openbabel.sf.net
data_I
_chemical_name_common ''
_cell_length_a 10.009
_cell_length_b 13.154
_cell_length_c 15.547
_cell_angle_alpha 89.998
_cell_angle_beta 89.946
_cell_angle_gamma 89.972
_space_group_name_H-M_alt 'P 1'
_space_group_name_Hall 'P 1'
loop_
    _symmetry_equiv_pos_as_xyz
    x,y,z
loop_
    _atom_site_label
    _atom_site_type_symbol
    _atom_site_fract_x
    _atom_site_fract_y
    _atom_site_fract_z
    _atom_site_occupancy
    C0      C    0.31998   0.10268   0.28828   1.000
    C1      C    0.81732   0.23215   0.25201   1.000
    C2      C    0.89562   0.88313   0.41698   1.000
    C3      C    0.59445   0.04980   0.66129   1.000
    C4      C    0.19024   0.90038   0.78782   1.000
    C5      C    0.69326   0.77023   0.75029   1.000
    C6      C    0.61352   0.11862   0.91691   1.000
    C7      C    0.91563   0.95388   0.16144   1.000
    C8      C    0.68847   0.60213   0.21422   1.000
    C9      C    0.19133   0.73164   0.25287   1.000
    C10     C    0.11328   0.38345   0.08670   1.000
    C11     C    0.41600   0.54855   0.84237   1.000
    C12     C    0.82059   0.39961   0.71559   1.000
    C13     C    0.31786   0.27073   0.75324   1.000
    C14     C    0.39729   0.61697   0.58688   1.000
    C15     C    0.09305   0.45421   0.34231   1.000
