# CIF file generated by openbabel 2.4.90, see http://openbabel.sf.net
data_I
_chemical_name_common ''
_cell_length_a 10.816
_cell_length_b 15.94
_cell_length_c 18.497
_cell_angle_alpha 114.393
_cell_angle_beta 107.119
_cell_angle_gamma 93.922
_space_group_name_H-M_alt 'P 1'
_space_group_name_Hall 'P 1'
loop_
    _symmetry_equiv_pos_as_xyz
    x,y,z
loop_
    _atom_site_label
    _atom_site_type_symbol
    _atom_site_fract_x
    _atom_site_fract_y
    _atom_site_fract_z
    _atom_site_occupancy
    Zr0     Zr   0.07059   0.61723   0.57390   1.000
    Zr1     Zr   0.19257   0.51112   0.36795   1.000
    Zr2     Zr   0.92940   0.38277   0.42617   1.000
    Zr3     Zr   0.80741   0.48892   0.63219   1.000
    N4      N    0.54119   0.76115   0.14579   1.000
    O5      O    0.32157   0.71259   0.39436   1.000
    O6      O    0.75556   0.66586   0.33745   1.000
    N7      N    0.45835   0.23861   0.85405   1.000
    O8      O    0.24421   0.33402   0.66251   1.000
    O9      O    0.35234   0.38903   0.63403   1.000
    O10     O    0.64743   0.61086   0.36596   1.000
    O11     O    0.27736   0.41422   0.69465   1.000
    O12     O    0.69106   0.30536   0.60987   1.000
    O13     O    0.72241   0.58567   0.30531   1.000
    O14     O    0.30198   0.35833   0.09119   1.000
    O15     O    0.68064   0.63603   0.91336   1.000
loop_
    _geom_bond_atom_site_label_1
    _geom_bond_atom_site_label_2
    _geom_bond_distance
    _geom_bond_site_symmetry_2
    _ccdc_geom_bond_type
    N4     O5        6.04140      .   S
    Zr0    O5        5.44252      .   S
    N4     O6        4.51009      .   S
    Zr0    O6        5.07234  1_455   S
    N7     O8        4.50905      .   S
    Zr2    O8        5.07077  1_655   S
    Zr1    O9        5.86180      .   S
    N7     O9        5.41441      .   S
    Zr3    O10       5.86287      .   S
    N4     O10       5.41512      .   S
    Zr0    O11       4.94794      .   S
    N7     O11       4.95268      .   S
    Zr2    O12       5.28199      .   S
    N7     O12       6.17753      .   S
    Zr2    O13       4.94844      .   S
    N4     O13       4.95326      .   S
    N7     O14       4.86190  1_556   S
    Zr1    O14       5.21541      .   S
    N4     O15       4.67794  1_554   S
    Zr3    O15       5.38444      .   S
