# CIF file generated by openbabel 2.4.90, see http://openbabel.sf.net
data_I
_chemical_name_common ''
_cell_length_a 18.407
_cell_length_b 18.416
_cell_length_c 18.411
_cell_angle_alpha 60.328
_cell_angle_beta 60.251
_cell_angle_gamma 60.283
_space_group_name_H-M_alt 'P 1'
_space_group_name_Hall 'P 1'
loop_
    _symmetry_equiv_pos_as_xyz
    x,y,z
loop_
    _atom_site_label
    _atom_site_type_symbol
    _atom_site_fract_x
    _atom_site_fract_y
    _atom_site_fract_z
    _atom_site_occupancy
    H0      H    0.16431   0.45248   0.45252   1.000
    H1      H    0.45177   0.16413   0.93200   1.000
    H2      H    0.45165   0.93216   0.16422   1.000
    H3      H    0.93224   0.45125   0.45120   1.000
    H4      H    0.16434   0.45166   0.93195   1.000
    H5      H    0.45119   0.93239   0.45116   1.000
    H6      H    0.45273   0.16410   0.45260   1.000
    H7      H    0.93180   0.45178   0.16422   1.000
    H8      H    0.16435   0.93212   0.45159   1.000
    H9      H    0.45267   0.45255   0.16419   1.000
    H10     H    0.45125   0.45120   0.93230   1.000
    H11     H    0.93180   0.16412   0.45184   1.000
    H12     H    0.54729   0.83590   0.54732   1.000
    H13     H    0.83568   0.54834   0.06804   1.000
    H14     H    0.06822   0.54822   0.83577   1.000
    H15     H    0.54883   0.06760   0.54883   1.000
    H16     H    0.54824   0.83587   0.06799   1.000
    H17     H    0.06778   0.54874   0.54872   1.000
    H18     H    0.83571   0.54752   0.54747   1.000
    H19     H    0.54837   0.06784   0.83577   1.000
    H20     H    0.06821   0.83587   0.54815   1.000
    H21     H    0.54735   0.54744   0.83580   1.000
    H22     H    0.54877   0.54879   0.06769   1.000
    H23     H    0.83568   0.06787   0.54840   1.000
    C24     C    0.09233   0.47367   0.47370   1.000
    C25     C    0.47329   0.09223   0.96100   1.000
    C26     C    0.47323   0.96108   0.09228   1.000
    C27     C    0.96117   0.47298   0.47300   1.000
    C28     C    0.09235   0.47322   0.96098   1.000
    C29     C    0.47296   0.96125   0.47293   1.000
    C30     C    0.47382   0.09221   0.47377   1.000
    C31     C    0.96091   0.47328   0.09228   1.000
    C32     C    0.09235   0.96107   0.47318   1.000
    C33     C    0.47379   0.47371   0.09226   1.000
    C34     C    0.47300   0.47296   0.96120   1.000
    C35     C    0.96091   0.09223   0.47331   1.000
    C36     C    0.52620   0.90778   0.52620   1.000
    C37     C    0.90767   0.52677   0.03900   1.000
    C38     C    0.03911   0.52671   0.90771   1.000
    C39     C    0.52706   0.03875   0.52706   1.000
    C40     C    0.52672   0.90776   0.03899   1.000
    C41     C    0.03885   0.52700   0.52699   1.000
    C42     C    0.90769   0.52632   0.52629   1.000
    C43     C    0.52679   0.03892   0.90771   1.000
    C44     C    0.03911   0.90777   0.52667   1.000
    C45     C    0.52623   0.52628   0.90773   1.000
    C46     C    0.52703   0.52703   0.03879   1.000
    C47     C    0.90767   0.03892   0.52680   1.000
    C48     C    0.05383   0.44631   0.44635   1.000
    C49     C    0.44615   0.05364   0.05360   1.000
    C50     C    0.05358   0.44613   0.05360   1.000
    C51     C    0.44642   0.05382   0.44635   1.000
    C52     C    0.05358   0.05364   0.44614   1.000
    C53     C    0.44643   0.44630   0.05381   1.000
    C54     C    0.55360   0.94617   0.55364   1.000
    C55     C    0.94644   0.55386   0.94630   1.000
    C56     C    0.55387   0.94635   0.94630   1.000
    C57     C    0.94619   0.55369   0.55363   1.000
    C58     C    0.94644   0.94635   0.55385   1.000
    C59     C    0.55359   0.55370   0.94617   1.000
loop_
    _geom_bond_atom_site_label_1
    _geom_bond_atom_site_label_2
    _geom_bond_distance
    _geom_bond_site_symmetry_2
    _ccdc_geom_bond_type
    C46    H22       1.08865      .   S
    C46    C33       1.39045      .   S
    C46    C59       1.40341  1_554   S
    C40    H16       1.08859      .   S
    C40    C26       1.39024      .   S
    C40    C56       1.40429  1_554   S
    C37    H13       1.08860      .   S
    C37    C31       1.39038      .   S
    C37    C55       1.40437  1_554   S
    C50    C31       1.40294  1_455   S
    C50    C28       1.40321  1_554   S
    C49    C26       1.40334  1_545   S
    C49    C25       1.40299  1_554   S
    C53    C33       1.40326      .   S
    C53    C34       1.40325  1_554   S
    C33    H9        1.08863      .   S
    C26    H2        1.08855      .   S
    C31    H7        1.08857      .   S
    C52    C32       1.40339  1_545   S
    C52    C35       1.40289  1_455   S
    C48    C27       1.40307  1_455   S
    C48    C24       1.40319      .   S
    C51    C29       1.40367  1_545   S
    C51    C30       1.40314      .   S
    H5     C29       1.08852      .   S
    H3     C27       1.08962      .   S
    H8     C32       1.08859      .   S
    H11    C35       1.08859      .   S
    H0     C24       1.08862      .   S
    H6     C30       1.08856      .   S
    C29    C36       1.39025      .   S
    C27    C42       1.39047      .   S
    C32    C44       1.39022      .   S
    C35    C47       1.39023      .   S
    C24    C41       1.39048      .   S
    C30    C39       1.39051      .   S
    C36    H12       1.08863      .   S
    C36    C54       1.40335      .   S
    C42    H18       1.08863      .   S
    C42    C57       1.40322      .   S
    C44    H20       1.08859      .   S
    C44    C58       1.40289  1_455   S
    C47    H23       1.08858      .   S
    C47    C58       1.40341  1_545   S
    C41    H17       1.08864      .   S
    C41    C57       1.40308  1_455   S
    C39    H15       1.08849      .   S
    C39    C54       1.40368  1_545   S
    H14    C38       1.08857      .   S
    H19    C43       1.08855      .   S
    H21    C45       1.08863      .   S
    C43    C56       1.40322  1_545   S
    C43    C25       1.39024      .   S
    C38    C55       1.40281  1_455   S
    C38    C28       1.39025      .   S
    C45    C59       1.40309      .   S
    C45    C34       1.39046      .   S
    H4     C28       1.08859      .   S
    H1     C25       1.08857      .   S
    H10    C34       1.08863      .   S
