# CIF file generated by openbabel 2.4.90, see http://openbabel.sf.net
data_I
_chemical_name_common ''
_cell_length_a 12.316
_cell_length_b 16.202
_cell_length_c 17.134
_cell_angle_alpha 89.853
_cell_angle_beta 89.941
_cell_angle_gamma 90.059
_space_group_name_H-M_alt 'P 1'
_space_group_name_Hall 'P 1'
loop_
    _symmetry_equiv_pos_as_xyz
    x,y,z
loop_
    _atom_site_label
    _atom_site_type_symbol
    _atom_site_fract_x
    _atom_site_fract_y
    _atom_site_fract_z
    _atom_site_occupancy
    C0      C    0.25788   0.27988   0.53580   1.000
    C1      C    0.25789   0.77988   0.53580   1.000
    C2      C    0.75754   0.22112   0.46470   1.000
    C3      C    0.75755   0.72112   0.46469   1.000
    C4      C    0.25658   0.97015   0.03580   1.000
    C5      C    0.25657   0.47016   0.03580   1.000
    C6      C    0.75665   0.52945   0.96410   1.000
    C7      C    0.75666   0.00000   0.96410   1.000
    C8      C    0.43942   0.50179   0.36122   1.000
    C9      C    0.43943   0.00000   0.36123   1.000
    C10     C    0.93877   0.99930   0.63877   1.000
    C11     C    0.93877   0.49931   0.63877   1.000
    C12     C    0.43818   0.24920   0.86164   1.000
    C13     C    0.43819   0.74921   0.86165   1.000
    C14     C    0.93797   0.25019   0.13842   1.000
    C15     C    0.93797   0.75020   0.13842   1.000
    C16     C    0.43877   0.19025   0.41225   1.000
    C17     C    0.43877   0.69026   0.41225   1.000
    C18     C    0.40444   0.42162   0.19235   1.000
    C19     C    0.40445   0.92163   0.19236   1.000
    C20     C    0.57417   0.37194   0.47140   1.000
    C21     C    0.57417   0.87194   0.47140   1.000
    C22     C    0.20987   0.43823   0.42244   1.000
    C23     C    0.20988   0.93824   0.42244   1.000
    C24     C    0.93832   0.31080   0.58820   1.000
    C25     C    0.93832   0.81081   0.58820   1.000
    C26     C    0.90378   0.07971   0.80740   1.000
    C27     C    0.90377   0.57972   0.80741   1.000
    C28     C    0.07398   0.12917   0.52876   1.000
    C29     C    0.07398   0.62918   0.52876   1.000
    C30     C    0.70924   0.06275   0.57810   1.000
    C31     C    0.70924   0.56275   0.57809   1.000
    C32     C    0.43735   0.06029   0.00000   1.000
    C33     C    0.43734   0.56029   0.00000   1.000
    C34     C    0.40434   0.32959   0.69259   1.000
    C35     C    0.40436   0.82959   0.69259   1.000
    C36     C    0.57305   0.37854   0.97138   1.000
    C37     C    0.57306   0.87855   0.97138   1.000
    C38     C    0.20863   0.31208   0.92282   1.000
    C39     C    0.20864   0.81209   0.92282   1.000
    C40     C    0.93720   0.43902   0.08755   1.000
    C41     C    0.93721   0.93903   0.08755   1.000
    C42     C    0.90412   0.17091   0.30793   1.000
    C43     C    0.90412   0.67091   0.30793   1.000
    C44     C    0.07284   0.12082   0.02851   1.000
    C45     C    0.07284   0.62083   0.02850   1.000
    C46     C    0.70834   0.18683   0.07783   1.000
    C47     C    0.70833   0.68684   0.07784   1.000
    C48     C    0.52009   0.14859   0.34695   1.000
    C49     C    0.52009   0.64859   0.34694   1.000
    C50     C    0.48322   0.43980   0.49879   1.000
    C51     C    0.48323   0.93980   0.49880   1.000
    C52     C    0.22638   0.51464   0.36058   1.000
    C53     C    0.22639   0.00000   0.36058   1.000
    C54     C    0.49799   0.39621   0.25639   1.000
    C55     C    0.49800   0.89622   0.25639   1.000
    C56     C    0.01927   0.35270   0.65356   1.000
    C57     C    0.01927   0.85271   0.65356   1.000
    C58     C    0.98316   0.06122   0.50118   1.000
    C59     C    0.98316   0.56123   0.50118   1.000
    C60     C    0.72573   0.98616   0.63970   1.000
    C61     C    0.72573   0.48617   0.63970   1.000
    C62     C    0.99695   0.10563   0.74308   1.000
    C63     C    0.99694   0.60564   0.74308   1.000
    C64     C    0.51859   0.10265   0.84659   1.000
    C65     C    0.51860   0.60265   0.84659   1.000
    C66     C    0.48222   0.31046   0.00000   1.000
    C67     C    0.48223   0.81047   0.00000   1.000
    C68     C    0.22510   0.23625   0.86073   1.000
    C69     C    0.22511   0.73626   0.86073   1.000
    C70     C    0.49687   0.35573   0.75706   1.000
    C71     C    0.49689   0.85573   0.75706   1.000
    C72     C    0.01812   0.39702   0.15300   1.000
    C73     C    0.01812   0.89702   0.15300   1.000
    C74     C    0.98185   0.18868   0.00101   1.000
    C75     C    0.98185   0.68869   0.00100   1.000
    C76     C    0.72486   0.26280   0.13977   1.000
    C77     C    0.72486   0.76281   0.13977   1.000
    C78     C    0.99663   0.14441   0.24351   1.000
    C79     C    0.99663   0.64441   0.24350   1.000
    C80     C    0.38222   0.22170   0.45900   1.000
    C81     C    0.38222   0.72171   0.45899   1.000
    C82     C    0.33735   0.43742   0.14552   1.000
    C83     C    0.33736   0.93743   0.14552   1.000
    C84     C    0.63979   0.32260   0.45291   1.000
    C85     C    0.63979   0.82260   0.45291   1.000
    C86     C    0.19570   0.38384   0.46745   1.000
    C87     C    0.19570   0.88385   0.46745   1.000
    C88     C    0.88202   0.27920   0.54141   1.000
    C89     C    0.88203   0.77921   0.54141   1.000
    C90     C    0.83692   0.06355   0.85443   1.000
    C91     C    0.83691   0.56355   0.85443   1.000
    C92     C    0.13950   0.17857   0.54744   1.000
    C93     C    0.13951   0.67858   0.54744   1.000
    C94     C    0.69505   0.11729   0.53330   1.000
    C95     C    0.69505   0.61729   0.53329   1.000
    C96     C    0.38082   0.02836   0.00000   1.000
    C97     C    0.38081   0.52837   0.00000   1.000
    C98     C    0.33796   0.31323   0.64547   1.000
    C99     C    0.33797   0.81324   0.64547   1.000
    C100    C    0.63856   0.42802   0.95253   1.000
    C101    C    0.63856   0.92804   0.95252   1.000
    C102    C    0.19450   0.36603   0.00000   1.000
    C103    C    0.19451   0.86604   0.00000   1.000
    C104    C    0.88095   0.47073   0.04070   1.000
    C105    C    0.88096   0.97073   0.04070   1.000
    C106    C    0.83774   0.18755   0.35504   1.000
    C107    C    0.83775   0.68756   0.35504   1.000
    C108    C    0.13849   0.07147   0.04707   1.000
    C109    C    0.13848   0.57148   0.04707   1.000
    C110    C    0.69415   0.13274   0.03278   1.000
    C111    C    0.69415   0.63275   0.03279   1.000
    O112    O    0.40908   0.54433   0.00000   1.000
    O113    O    0.31869   0.49926   0.01790   1.000
    O114    O    0.46021   0.77984   0.93082   1.000
    O115    O    0.52764   0.84451   0.98569   1.000
    O116    O    0.40908   0.04432   0.00000   1.000
    O117    O    0.31870   0.99926   0.01790   1.000
    O118    O    0.46020   0.27983   0.93082   1.000
    O119    O    0.52764   0.34450   0.98569   1.000
    O120    O    0.22555   0.91810   0.01790   1.000
    O121    O    0.20158   0.83907   0.96141   1.000
    O122    O    0.22553   0.41810   0.01790   1.000
    O123    O    0.20157   0.33906   0.96141   1.000
    O124    O    0.02734   0.65476   0.01475   1.000
    O125    O    0.95991   0.71945   0.06971   1.000
    O126    O    0.02735   0.15475   0.01476   1.000
    O127    O    0.95991   0.21944   0.06971   1.000
    O128    O    0.10566   0.59615   0.03779   1.000
    O129    O    0.10567   0.09614   0.03779   1.000
    O130    O    0.70125   0.15979   0.05530   1.000
    O131    O    0.72541   0.06637   0.99844   1.000
    O132    O    0.70124   0.65979   0.05531   1.000
    O133    O    0.72540   0.58110   0.99844   1.000
    O134    O    0.19752   0.52082   0.04144   1.000
    O135    O    0.29696   0.45379   0.09066   1.000
    O136    O    0.19753   0.02081   0.04144   1.000
    O137    O    0.29697   0.95379   0.09066   1.000
    O138    O    0.90908   0.95488   0.06412   1.000
    O139    O    0.81881   0.98537   0.00240   1.000
    O140    O    0.90908   0.45487   0.06413   1.000
    O141    O    0.81880   0.50009   0.00240   1.000
    O142    O    0.71660   0.22481   0.10880   1.000
    O143    O    0.71659   0.72482   0.10880   1.000
    O144    O    0.97766   0.91803   0.12028   1.000
    O145    O    0.97766   0.41802   0.12028   1.000
    O146    O    0.83141   0.75650   0.13910   1.000
    O147    O    0.97804   0.82361   0.14571   1.000
    O148    O    0.96730   0.69730   0.19096   1.000
    O149    O    0.83141   0.25649   0.13910   1.000
    O150    O    0.97804   0.32360   0.14571   1.000
    O151    O    0.96730   0.19730   0.19097   1.000
    O152    O    0.37089   0.42952   0.16894   1.000
    O153    O    0.37091   0.92953   0.16894   1.000
    O154    O    0.45121   0.40891   0.22437   1.000
    O155    O    0.45123   0.90893   0.22438   1.000
    O156    O    0.95037   0.65766   0.27572   1.000
    O157    O    0.95037   0.15766   0.27572   1.000
    O158    O    0.46870   0.44900   0.30880   1.000
    O159    O    0.46871   0.94811   0.30881   1.000
    O160    O    0.87093   0.67923   0.33149   1.000
    O161    O    0.87093   0.17923   0.33149   1.000
    O162    O    0.47975   0.57519   0.35408   1.000
    O163    O    0.47943   0.66943   0.37960   1.000
    O164    O    0.47976   0.07429   0.35409   1.000
    O165    O    0.47943   0.16942   0.37960   1.000
    O166    O    0.79765   0.70434   0.40987   1.000
    O167    O    0.79764   0.20434   0.40987   1.000
    O168    O    0.33290   0.50822   0.36090   1.000
    O169    O    0.21812   0.47644   0.39151   1.000
    O170    O    0.33291   0.00000   0.36091   1.000
    O171    O    0.21813   0.96912   0.39151   1.000
    O172    O    0.46132   0.47080   0.43001   1.000
    O173    O    0.46133   0.96990   0.43001   1.000
    O174    O    0.41050   0.70598   0.43562   1.000
    O175    O    0.41050   0.20598   0.43562   1.000
    O176    O    0.20278   0.41104   0.44494   1.000
    O177    O    0.20279   0.91105   0.44495   1.000
    O178    O    0.69867   0.77186   0.45880   1.000
    O179    O    0.60698   0.84727   0.46215   1.000
    O180    O    0.69867   0.27186   0.45880   1.000
    O181    O    0.60698   0.34727   0.46215   1.000
    O182    O    0.32005   0.75080   0.49740   1.000
    O183    O    0.32005   0.25079   0.49740   1.000
    O184    O    0.72630   0.66921   0.49899   1.000
    O185    O    0.81979   0.75017   0.50305   1.000
    O186    O    0.72630   0.16920   0.49900   1.000
    O187    O    0.81978   0.25016   0.50305   1.000
    O188    O    0.22679   0.33186   0.50162   1.000
    O189    O    0.22680   0.83187   0.50163   1.000
    O190    O    0.52870   0.40587   0.48510   1.000
    O191    O    0.52870   0.90587   0.48510   1.000
    O192    O    0.02857   0.09520   0.51497   1.000
    O193    O    0.96097   0.03026   0.56997   1.000
    O194    O    0.02857   0.59520   0.51497   1.000
    O195    O    0.96097   0.53027   0.56997   1.000
    O196    O    0.10674   0.15387   0.53810   1.000
    O197    O    0.10675   0.65388   0.53810   1.000
    O198    O    0.70215   0.59002   0.55569   1.000
    O199    O    0.70215   0.09002   0.55570   1.000
    O200    O    0.19869   0.22922   0.54162   1.000
    O201    O    0.29792   0.29656   0.59063   1.000
    O202    O    0.19870   0.72923   0.54162   1.000
    O203    O    0.29793   0.79656   0.59063   1.000
    O204    O    0.91018   0.79501   0.56481   1.000
    O205    O    0.91017   0.29500   0.56481   1.000
    O206    O    0.71748   0.52446   0.60890   1.000
    O207    O    0.71748   0.02446   0.60890   1.000
    O208    O    0.97880   0.33175   0.62088   1.000
    O209    O    0.97880   0.83176   0.62088   1.000
    O210    O    0.83225   0.99273   0.63923   1.000
    O211    O    0.97902   0.92601   0.64616   1.000
    O212    O    0.96786   0.05247   0.69092   1.000
    O213    O    0.83225   0.49274   0.63924   1.000
    O214    O    0.97902   0.42601   0.64616   1.000
    O215    O    0.96786   0.55247   0.69093   1.000
    O216    O    0.37115   0.32141   0.66903   1.000
    O217    O    0.37116   0.82141   0.66903   1.000
    O218    O    0.45061   0.34266   0.72482   1.000
    O219    O    0.45062   0.84266   0.72482   1.000
    O220    O    0.95036   0.09267   0.77524   1.000
    O221    O    0.95036   0.59268   0.77525   1.000
    O222    O    0.46753   0.30247   0.80935   1.000
    O223    O    0.46754   0.80247   0.80935   1.000
    O224    O    0.87035   0.07163   0.83091   1.000
    O225    O    0.87034   0.57164   0.83092   1.000
    O226    O    0.47839   0.17593   0.85412   1.000
    O227    O    0.47839   0.67593   0.85412   1.000
    O228    O    0.79679   0.03177   0.90926   1.000
    O229    O    0.79678   0.54650   0.90926   1.000
    O230    O    0.33164   0.24272   0.86119   1.000
    O231    O    0.21687   0.27416   0.89177   1.000
    O232    O    0.33165   0.74273   0.86119   1.000
    O233    O    0.21688   0.77417   0.89178   1.000
    O234    O    0.69761   0.96402   0.95831   1.000
    O235    O    0.60581   0.90330   0.96195   1.000
    O236    O    0.69760   0.47874   0.95831   1.000
    O237    O    0.60580   0.40328   0.96195   1.000
loop_
    _geom_bond_atom_site_label_1
    _geom_bond_atom_site_label_2
    _geom_bond_distance
    _geom_bond_site_symmetry_2
    _ccdc_geom_bond_type
    C97    O112      0.43348      .   S
    C33    O112      0.43348      .   S
    C97    O113      0.94858      .   S
    C5     O113      0.94858      .   S
    C67    O114      1.31457  1_554   S
    C13    O114      1.31457      .   S
    C67    O115      0.82192  1_554   S
    C37    O115      0.82192      .   S
    C96    O116      0.43346      .   S
    C32    O116      0.43346      .   S
    C96    O117      0.94856  1_545   S
    C4     O117      0.94856      .   S
    C66    O118      1.31458  1_554   S
    C12    O118      1.31458      .   S
    C66    O119      0.82192  1_554   S
    C36    O119      0.82192      .   S
    C103   O120      0.97591      .   S
    C4     O120      0.97591      .   S
    C103   O121      0.79826  1_554   S
    C39    O121      0.79826      .   S
    C102   O122      0.97600      .   S
    C5     O122      0.97600      .   S
    C102   O123      0.79830  1_554   S
    C38    O123      0.79830      .   S
    C75    O124      0.81973  1_655   S
    C45    O124      0.81973      .   S
    C75    O125      1.30762      .   S
    C15    O125      1.30762      .   S
    C74    O126      0.81974  1_655   S
    C44    O126      0.81974      .   S
    C74    O127      1.30761      .   S
    C14    O127      1.30761      .   S
    C45    O128      0.59048      .   S
    C109   O128      0.59048      .   S
    C44    O129      0.59048      .   S
    C108   O129      0.59048      .   S
    C110   O130      0.59113      .   S
    C46    O130      0.59113      .   S
    C110   O131      1.28622  1_554   S
    C7     O131      1.28622      .   S
    C111   O132      0.59113      .   S
    C47    O132      0.59113      .   S
    C111   O133      1.09422  1_554   S
    C6     O133      1.09422      .   S
    C5     O134      1.10147      .   S
    C109   O134      1.10147      .   S
    C5     O135      1.09605      .   S
    C82    O135      1.09605      .   S
    C4     O136      1.10148  1_565   S
    C108   O136      1.10148      .   S
    C4     O137      1.09602      .   S
    C83    O137      1.09602      .   S
    C105   O138      0.58906      .   S
    C41    O138      0.58906      .   S
    C105   O139      1.03604      .   S
    C7     O139      1.03604  1_546   S
    C104   O140      0.58907      .   S
    C40    O140      0.58907      .   S
    C104   O141      1.11494      .   S
    C6     O141      1.11494  1_556   S
    C46    O142      0.81995      .   S
    C76    O142      0.81995      .   S
    C47    O143      0.81996      .   S
    C77    O143      0.81996      .   S
    C41    O144      0.82366      .   S
    C73    O144      0.82366  1_455   S
    C40    O145      0.82365      .   S
    C72    O145      0.82365  1_455   S
    C15    O146      1.31645      .   S
    C77    O146      1.31645      .   S
    C15    O147      1.29370      .   S
    C73    O147      1.29370  1_455   S
    C15    O148      1.29334      .   S
    C79    O148      1.29334      .   S
    C14    O149      1.31645      .   S
    C76    O149      1.31645      .   S
    C14    O150      1.29371      .   S
    C72    O150      1.29371  1_455   S
    C14    O151      1.29333      .   S
    C78    O151      1.29333      .   S
    C82    O152      0.59009      .   S
    C18    O152      0.59009      .   S
    C83    O153      0.59010      .   S
    C19    O153      0.59010      .   S
    C18    O154      0.82187      .   S
    C54    O154      0.82187      .   S
    C19    O155      0.82187      .   S
    C55    O155      0.82187      .   S
    C79    O156      0.82187      .   S
    C43    O156      0.82187      .   S
    C78    O157      0.82187      .   S
    C42    O157      0.82187      .   S
    C54    O158      1.29315      .   S
    C8     O158      1.29315      .   S
    C55    O159      1.28350      .   S
    C9     O159      1.28350  1_545   S
    C43    O160      0.59007      .   S
    C107   O160      0.59007      .   S
    C42    O161      0.59007      .   S
    C106   O161      0.59007      .   S
    C49    O162      1.29378      .   S
    C8     O162      1.29378      .   S
    C49    O163      0.82364      .   S
    C17    O163      0.82364      .   S
    C48    O164      1.30709      .   S
    C9     O164      1.30709      .   S
    C48    O165      0.82364      .   S
    C16    O165      0.82364      .   S
    C107   O166      1.09587      .   S
    C3     O166      1.09587      .   S
    C106   O167      1.09588      .   S
    C2     O167      1.09588      .   S
    C52    O168      1.31614      .   S
    C8     O168      1.31614      .   S
    C52    O169      0.81999      .   S
    C22    O169      0.81999      .   S
    C53    O170      1.31192      .   S
    C9     O170      1.31192      .   S
    C53    O171      0.73480  1_545   S
    C23    O171      0.73480      .   S
    C8     O172      1.30839      .   S
    C50    O172      1.30839      .   S
    C9     O173      1.30287  1_545   S
    C51    O173      1.30287      .   S
    C17    O174      0.58906      .   S
    C81    O174      0.58906      .   S
    C16    O175      0.58906      .   S
    C80    O175      0.58906      .   S
    C22    O176      0.59111      .   S
    C86    O176      0.59111      .   S
    C23    O177      0.59111      .   S
    C87    O177      0.59111      .   S
    C85    O178      1.10127      .   S
    C3     O178      1.10127      .   S
    C85    O179      0.59051      .   S
    C21    O179      0.59051      .   S
    C84    O180      1.10127      .   S
    C2     O180      1.10127      .   S
    C84    O181      0.59050      .   S
    C20    O181      0.59050      .   S
    C81    O182      1.11470      .   S
    C1     O182      1.11470      .   S
    C80    O183      1.11471      .   S
    C0     O183      1.11471      .   S
    C3     O184      1.09422      .   S
    C95    O184      1.09422      .   S
    C3     O185      1.11483      .   S
    C89    O185      1.11483      .   S
    C2     O186      1.09422      .   S
    C94    O186      1.09422      .   S
    C2     O187      1.11482      .   S
    C88    O187      1.11482      .   S
    C86    O188      1.09428      .   S
    C0     O188      1.09428      .   S
    C87    O189      1.09428      .   S
    C1     O189      1.09428      .   S
    C20    O190      0.81973      .   S
    C50    O190      0.81973      .   S
    C21    O191      0.81973      .   S
    C51    O191      0.81973      .   S
    C58    O192      0.81974  1_655   S
    C28    O192      0.81974      .   S
    C58    O193      1.30832      .   S
    C10    O193      1.30832  1_565   S
    C59    O194      0.81974  1_655   S
    C29    O194      0.81974      .   S
    C59    O195      1.30831      .   S
    C11    O195      1.30831      .   S
    C28    O196      0.59052      .   S
    C92    O196      0.59052      .   S
    C29    O197      0.59051      .   S
    C93    O197      0.59051      .   S
    C95    O198      0.59112      .   S
    C31    O198      0.59112      .   S
    C94    O199      0.59112      .   S
    C30    O199      0.59112      .   S
    C0     O200      1.10138      .   S
    C92    O200      1.10138      .   S
    C0     O201      1.09585      .   S
    C98    O201      1.09585      .   S
    C1     O202      1.10138      .   S
    C93    O202      1.10138      .   S
    C1     O203      1.09585      .   S
    C99    O203      1.09585      .   S
    C89    O204      0.58906      .   S
    C25    O204      0.58906      .   S
    C88    O205      0.58907      .   S
    C24    O205      0.58907      .   S
    C31    O206      0.81999      .   S
    C61    O206      0.81999      .   S
    C30    O207      0.81999      .   S
    C60    O207      0.81999  1_565   S
    C24    O208      0.82367      .   S
    C56    O208      0.82367  1_455   S
    C25    O209      0.82367      .   S
    C57    O209      0.82367  1_455   S
    C10    O210      1.31617      .   S
    C60    O210      1.31617      .   S
    C10    O211      1.29327      .   S
    C57    O211      1.29327  1_455   S
    C10    O212      1.29339  1_565   S
    C62    O212      1.29339      .   S
    C11    O213      1.31616      .   S
    C61    O213      1.31616      .   S
    C11    O214      1.29340      .   S
    C56    O214      1.29340  1_455   S
    C11    O215      1.29340      .   S
    C63    O215      1.29340      .   S
    C98    O216      0.59008      .   S
    C34    O216      0.59008      .   S
    C99    O217      0.59009      .   S
    C35    O217      0.59009      .   S
    C34    O218      0.82187      .   S
    C70    O218      0.82187      .   S
    C35    O219      0.82186      .   S
    C71    O219      0.82186      .   S
    C62    O220      0.82185      .   S
    C26    O220      0.82185      .   S
    C63    O221      0.82185      .   S
    C27    O221      0.82185      .   S
    C70    O222      1.29340      .   S
    C12    O222      1.29340      .   S
    C71    O223      1.29341      .   S
    C13    O223      1.29341      .   S
    C26    O224      0.59010      .   S
    C90    O224      0.59010      .   S
    C27    O225      0.59010      .   S
    C91    O225      0.59010      .   S
    C64    O226      1.29352      .   S
    C12    O226      1.29352      .   S
    C65    O227      1.29352      .   S
    C13    O227      1.29352      .   S
    C90    O228      1.17818      .   S
    C7     O228      1.17818      .   S
    C91    O229      1.09582      .   S
    C6     O229      1.09582      .   S
    C68    O230      1.31626      .   S
    C12    O230      1.31626      .   S
    C68    O231      0.81995      .   S
    C38    O231      0.81995      .   S
    C69    O232      1.31625      .   S
    C13    O232      1.31625      .   S
    C69    O233      0.81995      .   S
    C39    O233      0.81995      .   S
    C101   O234      0.93708      .   S
    C7     O234      0.93708  1_545   S
    C101   O235      0.59051      .   S
    C37    O235      0.59051      .   S
    C100   O236      1.10142      .   S
    C6     O236      1.10142      .   S
    C100   O237      0.59051      .   S
    C36    O237      0.59051      .   S
