# CIF file generated by openbabel 2.4.90, see http://openbabel.sf.net
data_I
_chemical_name_common ''
_cell_length_a 13.417
_cell_length_b 13.831
_cell_length_c 16.197
_cell_angle_alpha 90.001
_cell_angle_beta 90.054
_cell_angle_gamma 90.106
_space_group_name_H-M_alt 'P 1'
_space_group_name_Hall 'P 1'
loop_
    _symmetry_equiv_pos_as_xyz
    x,y,z
loop_
    _atom_site_label
    _atom_site_type_symbol
    _atom_site_fract_x
    _atom_site_fract_y
    _atom_site_fract_z
    _atom_site_occupancy
    Zr0     Zr   0.99999   0.00000   0.00002   1.000
    Zr1     Zr   0.50001   0.00000   0.99998   1.000
    Zr2     Zr   0.75000   0.50002   0.50000   1.000
    Zr3     Zr   0.25000   0.50001   0.50001   1.000
    Zr4     Zr   0.75000   0.00001   0.00001   1.000
    Zr5     Zr   0.24999   0.99999   0.99998   1.000
    Zr6     Zr   0.99997   0.50001   0.50007   1.000
    Zr7     Zr   0.50004   0.50002   0.49994   1.000
    N8      N    0.62519   0.81831   0.18078   1.000
    O9      O    0.57283   0.85197   0.14573   1.000
    O10     O    0.67766   0.85300   0.14665   1.000
    N11     N    0.12800   0.81833   0.18079   1.000
    O12     O    0.07495   0.85201   0.14576   1.000
    O13     O    0.17979   0.85300   0.14664   1.000
    N14     N    0.87481   0.31829   0.31924   1.000
    O15     O    0.92713   0.35203   0.35426   1.000
    O16     O    0.82229   0.35289   0.35340   1.000
    N17     N    0.37515   0.18167   0.18078   1.000
    O18     O    0.32287   0.14791   0.14575   1.000
    O19     O    0.42766   0.14707   0.14657   1.000
    N20     N    0.62522   0.68175   0.68077   1.000
    O21     O    0.67773   0.64715   0.64660   1.000
    O22     O    0.57290   0.64801   0.64575   1.000
    N23     N    0.12768   0.81836   0.81922   1.000
    O24     O    0.07446   0.85297   0.85343   1.000
    O25     O    0.17924   0.85212   0.85424   1.000
    N26     N    0.37487   0.18168   0.81921   1.000
    O27     O    0.42721   0.14801   0.85425   1.000
    O28     O    0.32237   0.14700   0.85335   1.000
    N29     N    0.87478   0.18172   0.81922   1.000
    O30     O    0.92714   0.14805   0.85427   1.000
    O31     O    0.82231   0.14704   0.85336   1.000
    C32     C    0.62524   0.09230   0.00776   1.000
    O33     O    0.59390   0.06076   0.00387   1.000
    O34     O    0.65639   0.06076   0.00387   1.000
    C35     C    0.87476   0.90782   0.99192   1.000
    O36     O    0.90611   0.93930   0.99597   1.000
    O37     O    0.84361   0.93930   0.99596   1.000
    C38     C    0.12524   0.09241   0.00729   1.000
    O39     O    0.09389   0.06081   0.00364   1.000
    O40     O    0.15639   0.06081   0.00364   1.000
    C41     C    0.37477   0.90751   0.99318   1.000
    O42     O    0.40612   0.93916   0.99658   1.000
    O43     O    0.34361   0.93916   0.99658   1.000
    C44     C    0.87514   0.59218   0.49185   1.000
    O45     O    0.84385   0.56071   0.49594   1.000
    O46     O    0.90634   0.56071   0.49596   1.000
    C47     C    0.12483   0.40734   0.50601   1.000
    O48     O    0.15613   0.43910   0.50302   1.000
    O49     O    0.09363   0.43910   0.50304   1.000
    C50     C    0.62487   0.40792   0.50835   1.000
    O51     O    0.65616   0.43935   0.50416   1.000
    O52     O    0.59367   0.43936   0.50414   1.000
    C53     C    0.37517   0.59268   0.49396   1.000
    O54     O    0.34387   0.56093   0.49697   1.000
    O55     O    0.40638   0.56093   0.49695   1.000
    C56     C    0.37472   0.31837   0.31920   1.000
    O57     O    0.42704   0.35212   0.35419   1.000
    O58     O    0.32219   0.35294   0.35339   1.000
    O59     O    0.37492   0.25005   0.25001   1.000
    C60     C    0.62485   0.81844   0.81920   1.000
    O61     O    0.67714   0.85218   0.85423   1.000
    O62     O    0.57236   0.85303   0.85340   1.000
    O63     O    0.62503   0.75009   0.74996   1.000
    C64     C    0.12812   0.68167   0.68081   1.000
    O65     O    0.17994   0.64709   0.64662   1.000
    O66     O    0.07509   0.64792   0.64582   1.000
    O67     O    0.12934   0.75000   0.75000   1.000
    C68     C    0.37520   0.31839   0.68079   1.000
    O69     O    0.42767   0.35307   0.64660   1.000
    O70     O    0.32288   0.35208   0.64574   1.000
    O71     O    0.37504   0.25003   0.75002   1.000
    C72     C    0.87501   0.31844   0.68081   1.000
    O73     O    0.92745   0.35314   0.64665   1.000
    O74     O    0.82271   0.35212   0.64574   1.000
    O75     O    0.87488   0.25008   0.75003   1.000
    C76     C    0.12767   0.68163   0.31922   1.000
    O77     O    0.07449   0.64696   0.35341   1.000
    O78     O    0.17927   0.64794   0.35427   1.000
    O79     O    0.12926   0.74999   0.24998   1.000
    C80     C    0.87519   0.18159   0.18082   1.000
    O81     O    0.92767   0.14699   0.14661   1.000
    O82     O    0.82290   0.14784   0.14579   1.000
    O83     O    0.87501   0.24994   0.25005   1.000
    C84     C    0.62497   0.68159   0.31919   1.000
    O85     O    0.57253   0.64689   0.35335   1.000
    O86     O    0.67728   0.64791   0.35425   1.000
    O87     O    0.62509   0.74995   0.24997   1.000
loop_
    _geom_bond_atom_site_label_1
    _geom_bond_atom_site_label_2
    _geom_bond_distance
    _geom_bond_site_symmetry_2
    _ccdc_geom_bond_type
    N8     O9        1.01643      .   S
    Zr1    O9        3.27463  1_546   S
    N8     O10       1.01536      .   S
    Zr4    O10       3.27329  1_545   S
    N11    O12       1.02276      .   S
    Zr0    O12       3.28278  1_645   S
    N11    O13       1.00905      .   S
    Zr5    O13       3.26508  1_556   S
    N14    O15       1.01509      .   S
    Zr6    O15       3.27253      .   S
    N14    O16       1.01672      .   S
    Zr2    O16       3.27581      .   S
    N17    O18       1.01486      .   S
    Zr5    O18       3.27166  1_566   S
    N17    O19       1.01700      .   S
    Zr1    O19       3.27551  1_556   S
    N20    O21       1.01670      .   S
    Zr2    O21       3.27584      .   S
    N20    O22       1.01512      .   S
    Zr7    O22       3.27268      .   S
    N23    O24       1.02367      .   S
    Zr0    O24       3.28373  1_644   S
    N23    O25       1.00816      .   S
    Zr5    O25       3.26265      .   S
    N26    O27       1.01615      .   S
    Zr1    O27       3.27401      .   S
    N26    O28       1.01563      .   S
    Zr5    O28       3.27343  1_565   S
    N29    O30       1.01644      .   S
    Zr0    O30       3.27485  1_554   S
    N29    O31       1.01539      .   S
    Zr4    O31       3.27349  1_554   S
    C32    O33       0.60858      .   S
    Zr1    O33       1.51428  1_556   S
    C32    O34       0.60800      .   S
    Zr4    O34       1.51375      .   S
    C35    O36       0.60831      .   S
    Zr0    O36       1.51388  1_544   S
    C35    O37       0.60774      .   S
    Zr4    O37       1.51348  1_544   S
    C38    O39       0.60886      .   S
    Zr0    O39       1.51458  1_655   S
    C38    O40       0.60826      .   S
    Zr5    O40       1.51400  1_566   S
    C41    O42       0.60900      .   S
    Zr1    O42       1.51456  1_545   S
    C41    O43       0.60846      .   S
    Zr5    O43       1.51417      .   S
    C44    O45       0.60789      .   S
    Zr2    O45       1.51342      .   S
    C44    O46       0.60800      .   S
    Zr6    O46       1.51358      .   S
    C47    O48       0.60916      .   S
    Zr3    O48       1.51479      .   S
    C47    O49       0.60920      .   S
    Zr6    O49       1.51493  1_655   S
    C50    O51       0.60776      .   S
    Zr2    O51       1.51328      .   S
    C50    O52       0.60788      .   S
    Zr7    O52       1.51346      .   S
    C53    O54       0.60913      .   S
    Zr3    O54       1.51475      .   S
    C53    O55       0.60920      .   S
    Zr7    O55       1.51497      .   S
    C56    O57       1.01492      .   S
    Zr7    O57       3.27180      .   S
    C56    O58       1.01693      .   S
    Zr3    O58       3.27511      .   S
    C56    O59       1.46592      .   S
    N17    O59       1.46683      .   S
    C60    O61       1.01491      .   S
    Zr4    O61       3.27103  1_544   S
    C60    O62       1.01671      .   S
    Zr1    O62       3.27451  1_545   S
    C60    O63       1.46663      .   S
    N20    O63       1.46609      .   S
    C64    O65       1.01032      .   S
    Zr3    O65       3.26674      .   S
    C64    O66       1.02153      .   S
    Zr6    O66       3.28041  1_655   S
    C64    O67       1.46598      .   S
    N23    O67       1.46691      .   S
    C68    O69       1.01577      .   S
    Zr7    O69       3.27325      .   S
    C68    O70       1.01611      .   S
    Zr3    O70       3.27373      .   S
    C68    O71       1.46685      .   S
    N26    O71       1.46608      .   S
    C72    O73       1.01532      .   S
    Zr6    O73       3.27223      .   S
    C72    O74       1.01613      .   S
    Zr2    O74       3.27296      .   S
    C72    O75       1.46672      .   S
    N29    O75       1.46617      .   S
    C76    O77       1.02238      .   S
    Zr6    O77       3.28181  1_655   S
    C76    O78       1.00954      .   S
    Zr3    O78       3.26524      .   S
    C76    O79       1.46698      .   S
    N11    O79       1.46619      .   S
    C80    O81       1.01675      .   S
    Zr0    O81       3.27470      .   S
    C80    O82       1.01490      .   S
    Zr4    O82       3.27125      .   S
    C80    O83       1.46668      .   S
    N14    O83       1.46607      .   S
    C84    O85       1.01530      .   S
    Zr7    O85       3.27211      .   S
    C84    O86       1.01612      .   S
    Zr2    O86       3.27288      .   S
    C84    O87       1.46670      .   S
    N8     O87       1.46613      .   S
