# CIF file generated by openbabel 2.4.90, see http://openbabel.sf.net
data_I
_chemical_name_common ''
_cell_length_a 10.7825
_cell_length_b 15.217
_cell_length_c 15.23
_cell_angle_alpha 117.713
_cell_angle_beta 107.007
_cell_angle_gamma 94.796
_space_group_name_H-M_alt 'P 1'
_space_group_name_Hall 'P 1'
loop_
    _symmetry_equiv_pos_as_xyz
    x,y,z
loop_
    _atom_site_label
    _atom_site_type_symbol
    _atom_site_fract_x
    _atom_site_fract_y
    _atom_site_fract_z
    _atom_site_occupancy
    Zr0     Zr   0.95042   0.52652   0.57296   1.000
    Zr1     Zr   0.90397   0.74420   0.61665   1.000
    Zr2     Zr   0.73330   0.75443   0.71539   1.000
    Zr3     Zr   0.64754   0.73889   0.51707   1.000
    Zr4     Zr   0.80839   0.90386   0.68784   1.000
    Zr5     Zr   0.05017   0.47369   0.42724   1.000
    Zr6     Zr   0.09680   0.25623   0.38375   1.000
    Zr7     Zr   0.26721   0.24535   0.28465   1.000
    Zr8     Zr   0.35301   0.26087   0.48290   1.000
    Zr9     Zr   0.19102   0.09611   0.31211   1.000
    Zr10    Zr   0.70864   0.56876   0.53265   1.000
    Zr11    Zr   0.12141   0.67544   0.58589   1.000
    Zr12    Zr   0.98949   0.86439   0.83371   1.000
    Zr13    Zr   0.84741   0.83741   0.49741   1.000
    Zr14    Zr   0.54843   0.84954   0.66680   1.000
    Zr15    Zr   0.29180   0.43130   0.46739   1.000
    Zr16    Zr   0.87838   0.32457   0.41419   1.000
    Zr17    Zr   0.01045   0.13559   0.16619   1.000
    Zr18    Zr   0.15290   0.16271   0.50277   1.000
    Zr19    Zr   0.45153   0.15000   0.33309   1.000
    O20     O    0.13883   0.19047   0.22542   1.000
    O21     O    0.22912   0.17073   0.29838   1.000
    O22     O    0.35937   0.19767   0.30887   1.000
    O23     O    0.18201   0.25079   0.33420   1.000
    O24     O    0.31011   0.25311   0.38377   1.000
    O25     O    0.14391   0.17617   0.34793   1.000
    O26     O    0.27201   0.17849   0.39751   1.000
    O27     O    0.22490   0.25855   0.43332   1.000
    O28     O    0.96427   0.39913   0.42071   1.000
    O29     O    0.17098   0.45250   0.44732   1.000
    O30     O    0.00029   0.50011   0.50010   1.000
    O31     O    0.25295   0.21179   0.49283   1.000
    O32     O    0.74747   0.78815   0.50724   1.000
    O33     O    0.77575   0.74155   0.56686   1.000
    O34     O    0.72796   0.82137   0.60246   1.000
    O35     O    0.69042   0.74666   0.61623   1.000
    O36     O    0.82953   0.54764   0.55280   1.000
    O37     O    0.03591   0.60098   0.57942   1.000
    O38     O    0.85618   0.82403   0.65225   1.000
    O39     O    0.81863   0.74932   0.66602   1.000
    O40     O    0.64086   0.80198   0.69110   1.000
    O41     O    0.77084   0.82915   0.70162   1.000
    O42     O    0.86139   0.80941   0.77455   1.000
    N43     N    0.49997   0.49996   1.00000   1.000
    O44     O    0.25126   0.51296   0.81982   1.000
    O45     O    0.59985   0.61362   0.87842   1.000
    O46     O    0.74883   0.48706   0.18023   1.000
    O47     O    0.40030   0.38624   0.12159   1.000
    N48     N    0.00005   0.50001   0.00003   1.000
    O49     O    0.08271   0.25913   0.13608   1.000
    O50     O    0.78164   0.60375   0.22410   1.000
    O51     O    0.91715   0.74087   0.86395   1.000
    O52     O    0.21860   0.39618   0.77592   1.000
loop_
    _geom_bond_atom_site_label_1
    _geom_bond_atom_site_label_2
    _geom_bond_distance
    _geom_bond_site_symmetry_2
    _ccdc_geom_bond_type
    Zr17   O20       1.34275      .   S
    Zr7    O20       1.34275      .   S
    Zr7    O21       1.30191      .   S
    Zr9    O21       1.30191      .   S
    Zr7    O22       1.34344      .   S
    Zr19   O22       1.34344      .   S
    Zr7    O23       1.33440      .   S
    Zr6    O23       1.33440      .   S
    Zr7    O24       1.38693      .   S
    Zr8    O24       1.38693      .   S
    Zr9    O25       1.29893      .   S
    Zr6    O25       1.29893      .   S
    Zr9    O26       1.28905      .   S
    Zr8    O26       1.28905      .   S
    Zr6    O27       1.35508      .   S
    Zr8    O27       1.35508      .   S
    Zr16   O28       1.34925      .   S
    Zr5    O28       1.34925  1_455   S
    Zr5    O29       1.35043      .   S
    Zr15   O29       1.35043      .   S
    Zr5    O30       1.28547      .   S
    Zr0    O30       1.28547  1_655   S
    Zr8    O31       1.34552      .   S
    Zr18   O31       1.34552      .   S
    Zr13   O32       1.34504      .   S
    Zr3    O32       1.34504      .   S
    Zr3    O33       1.35532      .   S
    Zr1    O33       1.35532      .   S
    Zr3    O34       1.28790      .   S
    Zr4    O34       1.28790      .   S
    Zr3    O35       1.38738      .   S
    Zr2    O35       1.38738      .   S
    Zr10   O36       1.35070      .   S
    Zr0    O36       1.35070      .   S
    Zr0    O37       1.34606  1_655   S
    Zr11   O37       1.34606      .   S
    Zr1    O38       1.30024      .   S
    Zr4    O38       1.30024      .   S
    Zr1    O39       1.33430      .   S
    Zr2    O39       1.33430      .   S
    Zr14   O40       1.34451      .   S
    Zr2    O40       1.34451      .   S
    Zr4    O41       1.30194      .   S
    Zr2    O41       1.30194      .   S
    Zr2    O42       1.34057      .   S
    Zr12   O42       1.34057      .   S
    N43    O44       3.32405      .   S
    Zr0    O44       4.28949  1_655   S
    N43    O45       3.37839      .   S
    Zr2    O45       4.39869      .   S
    N43    O46       3.32475  1_556   S
    Zr5    O46       4.29219  1_455   S
    N43    O47       3.37833  1_556   S
    Zr7    O47       4.39827      .   S
    N48    O49       5.00528      .   S
    Zr9    O49       4.42093      .   S
    N48    O50       4.47173  1_455   S
    Zr3    O50       4.68677      .   S
    N48    O51       5.00563  1_454   S
    Zr4    O51       4.42202      .   S
    N48    O52       4.47342  1_554   S
    Zr8    O52       4.68954      .   S
