# CIF file generated by openbabel 2.4.90, see http://openbabel.sf.net
data_I
_chemical_name_common ''
_cell_length_a 20.818
_cell_length_b 14.184
_cell_length_c 14.212
_cell_angle_alpha 105.285
_cell_angle_beta 97.023
_cell_angle_gamma 95.798
_space_group_name_H-M_alt 'P 1'
_space_group_name_Hall 'P 1'
loop_
    _symmetry_equiv_pos_as_xyz
    x,y,z
loop_
    _atom_site_label
    _atom_site_type_symbol
    _atom_site_fract_x
    _atom_site_fract_y
    _atom_site_fract_z
    _atom_site_occupancy
    N0      N    0.50000   0.00001   0.49998   1.000
    N1      N    0.87314   0.30766   0.22905   1.000
    N2      N    0.37314   0.30766   0.22908   1.000
    N3      N    0.00000   0.00001   0.49998   1.000
    N4      N    0.12352   0.22873   0.30817   1.000
    N5      N    0.62352   0.22874   0.30817   1.000
    N6      N    0.25000   0.50000   0.99998   1.000
    N7      N    0.75000   0.50001   0.99998   1.000
    N8      N    0.62686   0.69234   0.77029   1.000
    N9      N    0.12685   0.69234   0.77029   1.000
    N10     N    0.37649   0.77090   0.69179   1.000
    N11     N    0.87649   0.77090   0.69178   1.000
    Zr12    Zr   0.87476   0.27981   0.72137   1.000
    O13     O    0.88634   0.42794   0.72486   1.000
    O14     O    0.89330   0.14311   0.71913   1.000
    O15     O    0.89277   0.29678   0.59034   1.000
    O16     O    0.99753   0.35250   0.80900   1.000
    O17     O    0.88743   0.29468   0.87383   1.000
    O18     O    0.85655   0.41085   0.70335   1.000
    O19     O    0.86295   0.27607   0.57248   1.000
    O20     O    0.85638   0.28204   0.85734   1.000
    O21     O    0.86226   0.12734   0.70570   1.000
    O22     O    0.75206   0.19217   0.64796   1.000
    Zr23    Zr   0.37476   0.27981   0.72137   1.000
    O24     O    0.39330   0.14311   0.71912   1.000
    O25     O    0.49753   0.35250   0.80900   1.000
    O26     O    0.38743   0.29468   0.87384   1.000
    O27     O    0.39277   0.29678   0.59035   1.000
    O28     O    0.38634   0.42794   0.72486   1.000
    O29     O    0.36226   0.12734   0.70570   1.000
    O30     O    0.35655   0.41085   0.70335   1.000
    O31     O    0.36295   0.27607   0.57249   1.000
    O32     O    0.35638   0.28204   0.85735   1.000
    O33     O    0.25206   0.19217   0.64796   1.000
    Zr34    Zr   0.62524   0.72021   0.27857   1.000
    O35     O    0.63705   0.72394   0.42731   1.000
    O36     O    0.64346   0.58907   0.29660   1.000
    O37     O    0.64362   0.71797   0.14245   1.000
    O38     O    0.74795   0.80785   0.35199   1.000
    O39     O    0.63774   0.87259   0.29424   1.000
    O40     O    0.61366   0.57199   0.27509   1.000
    O41     O    0.60670   0.85682   0.28083   1.000
    O42     O    0.50247   0.64752   0.19095   1.000
    O43     O    0.61257   0.70534   0.12597   1.000
    O44     O    0.60724   0.70324   0.40946   1.000
    Zr45    Zr   0.12524   0.72021   0.27859   1.000
    O46     O    0.14346   0.58907   0.29661   1.000
    O47     O    0.14362   0.71797   0.14247   1.000
    O48     O    0.13774   0.87258   0.29426   1.000
    O49     O    0.13705   0.72393   0.42732   1.000
    O50     O    0.24795   0.80785   0.35200   1.000
    O51     O    0.11257   0.70533   0.12597   1.000
    O52     O    0.10670   0.85681   0.28084   1.000
    O53     O    0.11366   0.57199   0.27510   1.000
    O54     O    0.10723   0.70323   0.40946   1.000
    O55     O    0.00247   0.64752   0.19096   1.000
loop_
    _geom_bond_atom_site_label_1
    _geom_bond_atom_site_label_2
    _geom_bond_distance
    _geom_bond_site_symmetry_2
    _ccdc_geom_bond_type
    Zr12   O13       2.07718      .   S
    N11    O13       5.03100      .   S
    Zr12   O14       2.00777      .   S
    N11    O14       5.16310  1_565   S
    Zr12   O15       2.01376      .   S
    N1     O15       5.14526      .   S
    Zr12   O16       2.67554      .   S
    N6     O16       5.53751  1_455   S
    Zr12   O17       2.10162      .   S
    N1     O17       5.04934  1_554   S
    Zr12   O18       2.00845      .   S
    N11    O18       5.12940      .   S
    Zr12   O19       2.08613      .   S
    N1     O19       5.04542      .   S
    Zr12   O20       2.00808      .   S
    N1     O20       5.16449  1_554   S
    Zr12   O21       2.10061      .   S
    N11    O21       5.04748  1_565   S
    Zr12   O22       2.67994      .   S
    N0     O22       5.54759      .   S
    Zr23   O24       2.00778      .   S
    N10    O24       5.16312  1_565   S
    Zr23   O25       2.67556      .   S
    N7     O25       5.53756      .   S
    Zr23   O26       2.10179      .   S
    N2     O26       5.04978  1_554   S
    Zr23   O27       2.01359      .   S
    N2     O27       5.14482      .   S
    Zr23   O28       2.07717      .   S
    N10    O28       5.03097      .   S
    Zr23   O29       2.10063      .   S
    N10    O29       5.04748  1_565   S
    Zr23   O30       2.00844      .   S
    N10    O30       5.12938      .   S
    Zr23   O31       2.08598      .   S
    N2     O31       5.04497      .   S
    Zr23   O32       2.00823      .   S
    N2     O32       5.16494  1_554   S
    Zr23   O33       2.67993      .   S
    N3     O33       5.54757      .   S
    Zr34   O35       2.08399      .   S
    N8     O35       5.03894      .   S
    Zr34   O36       2.00979      .   S
    N5     O36       5.13347      .   S
    Zr34   O37       2.01021      .   S
    N8     O37       5.17098  1_556   S
    Zr34   O38       2.67993      .   S
    N3     O38       5.54756  1_445   S
    Zr34   O39       2.09928      .   S
    N5     O39       5.04337  1_545   S
    Zr34   O40       2.07854      .   S
    N5     O40       5.03507      .   S
    Zr34   O41       2.00642      .   S
    N5     O41       5.15903  1_545   S
    Zr34   O42       2.67555      .   S
    N6     O42       5.53756  1_556   S
    Zr34   O43       2.10374      .   S
    N8     O43       5.05587  1_556   S
    Zr34   O44       2.01168      .   S
    N8     O44       5.13875      .   S
    Zr45   O46       2.00978      .   S
    N4     O46       5.13342      .   S
    Zr45   O47       2.01027      .   S
    N9     O47       5.17116  1_556   S
    Zr45   O48       2.09929      .   S
    N4     O48       5.04341  1_545   S
    Zr45   O49       2.08393      .   S
    N9     O49       5.03875      .   S
    Zr45   O50       2.67994      .   S
    N0     O50       5.54758  1_545   S
    Zr45   O51       2.10386      .   S
    N9     O51       5.05599  1_556   S
    Zr45   O52       2.00644      .   S
    N4     O52       5.15906  1_545   S
    Zr45   O53       2.07851      .   S
    N4     O53       5.03503      .   S
    Zr45   O54       2.01157      .   S
    N9     O54       5.13862      .   S
    Zr45   O55       2.67555      .   S
    N7     O55       5.53754  1_656   S
