# CIF file generated by openbabel 2.4.90, see http://openbabel.sf.net
data_I
_chemical_name_common ''
_cell_length_a 10.85
_cell_length_b 14.447
_cell_length_c 15.857
_cell_angle_alpha 90
_cell_angle_beta 89.976
_cell_angle_gamma 90.003
_space_group_name_H-M_alt 'P 1'
_space_group_name_Hall 'P 1'
loop_
    _symmetry_equiv_pos_as_xyz
    x,y,z
loop_
    _atom_site_label
    _atom_site_type_symbol
    _atom_site_fract_x
    _atom_site_fract_y
    _atom_site_fract_z
    _atom_site_occupancy
    Zr0     Zr   0.33239   0.48766   0.74999   1.000
    Zr1     Zr   0.00000   0.48765   0.75001   1.000
    Zr2     Zr   0.33233   0.00000   0.74997   1.000
    Zr3     Zr   0.00000   0.00000   0.75001   1.000
    Zr4     Zr   0.17255   0.51232   0.24992   1.000
    Zr5     Zr   0.67252   0.51231   0.24988   1.000
    Zr6     Zr   0.17254   0.98767   0.24990   1.000
    Zr7     Zr   0.67249   0.98770   0.24980   1.000
    Zr8     Zr   0.06714   0.46798   0.54718   1.000
    Zr9     Zr   0.56717   0.46796   0.54715   1.000
    Zr10    Zr   0.06698   0.03205   0.95276   1.000
    Zr11    Zr   0.56700   0.03201   0.95259   1.000
    Zr12    Zr   0.43792   0.53197   0.04723   1.000
    Zr13    Zr   0.00000   0.53195   0.04725   1.000
    Zr14    Zr   0.43807   0.96792   0.45279   1.000
    Zr15    Zr   0.00000   0.96792   0.45279   1.000
    Zr16    Zr   0.43807   0.53209   0.45280   1.000
    Zr17    Zr   0.00000   0.53208   0.45279   1.000
    Zr18    Zr   0.43792   0.96807   0.04721   1.000
    Zr19    Zr   0.00000   0.96810   0.04726   1.000
    Zr20    Zr   0.06702   0.46795   0.95276   1.000
    Zr21    Zr   0.56702   0.46797   0.95268   1.000
    Zr22    Zr   0.06715   0.03201   0.54718   1.000
    Zr23    Zr   0.56718   0.03203   0.54713   1.000
    Zr24    Zr   0.88402   0.75001   0.75004   1.000
    Zr25    Zr   0.38400   0.75002   0.75010   1.000
    Zr26    Zr   0.62094   0.24998   0.24998   1.000
    Zr27    Zr   0.12106   0.24999   0.25010   1.000
    Zr28    Zr   0.94823   0.43768   0.60375   1.000
    Zr29    Zr   0.44826   0.43768   0.60374   1.000
    Zr30    Zr   0.94814   0.06235   0.89620   1.000
    Zr31    Zr   0.44804   0.06231   0.89615   1.000
    Zr32    Zr   0.55684   0.56227   0.10374   1.000
    Zr33    Zr   0.05680   0.56224   0.10375   1.000
    Zr34    Zr   0.55701   0.93765   0.39623   1.000
    Zr35    Zr   0.05703   0.93763   0.39624   1.000
    Zr36    Zr   0.55701   0.56235   0.39623   1.000
    Zr37    Zr   0.05702   0.56235   0.39623   1.000
    Zr38    Zr   0.55681   0.93773   0.10372   1.000
    Zr39    Zr   0.05672   0.93780   0.10375   1.000
    Zr40    Zr   0.94815   0.43767   0.89621   1.000
    Zr41    Zr   0.44810   0.43769   0.89618   1.000
    Zr42    Zr   0.94824   0.06232   0.60374   1.000
    Zr43    Zr   0.44828   0.06233   0.60373   1.000
    Zr44    Zr   0.53146   0.75001   0.75024   1.000
    Zr45    Zr   0.03150   0.75001   0.75007   1.000
    Zr46    Zr   0.97359   0.25000   0.25091   1.000
    Zr47    Zr   0.47350   0.25003   0.25105   1.000
    O48     O    0.49737   0.95290   0.07547   1.000
    O49     O    0.50246   0.00004   0.99990   1.000
    O50     O    0.49738   0.54712   0.07548   1.000
    O51     O    0.50247   0.49997   0.99995   1.000
    O52     O    0.02840   0.54709   0.07550   1.000
    O53     O    0.03351   0.49995   0.00000   1.000
    O54     O    0.02836   0.95295   0.07551   1.000
    O55     O    0.03349   0.00007   0.00001   1.000
    O56     O    0.61465   0.96271   0.17676   1.000
    O57     O    0.61468   0.53729   0.17681   1.000
    O58     O    0.11467   0.53728   0.17683   1.000
    O59     O    0.11463   0.96273   0.17683   1.000
    O60     O    0.54722   0.25000   0.25052   1.000
    O61     O    0.04733   0.24999   0.25051   1.000
    O62     O    0.49754   0.95278   0.42451   1.000
    O63     O    0.49754   0.54722   0.42452   1.000
    O64     O    0.02851   0.54722   0.42451   1.000
    O65     O    0.02852   0.95278   0.42451   1.000
    O66     O    0.50262   0.99997   0.49996   1.000
    O67     O    0.03358   0.99996   0.49998   1.000
    O68     O    0.03357   0.50003   0.49999   1.000
    O69     O    0.50262   0.50002   0.49998   1.000
    O70     O    0.50773   0.04718   0.57543   1.000
    O71     O    0.50772   0.45282   0.57545   1.000
    O72     O    0.00769   0.04717   0.57546   1.000
    O73     O    0.00768   0.45283   0.57546   1.000
    O74     O    0.39024   0.46267   0.82309   1.000
    O75     O    0.97407   0.03117   0.82311   1.000
    O76     O    0.97408   0.46266   0.82311   1.000
    O77     O    0.95776   0.75001   0.75005   1.000
    O78     O    0.45773   0.75001   0.75017   1.000
    O79     O    0.50752   0.04716   0.92437   1.000
    O80     O    0.50756   0.45283   0.92443   1.000
    O81     O    0.00756   0.04720   0.92448   1.000
    O82     O    0.00758   0.45281   0.92448   1.000
    O83     O    0.97411   0.46267   0.67688   1.000
    O84     O    0.39033   0.46267   0.67687   1.000
    O85     O    0.39019   0.03116   0.82306   1.000
    O86     O    0.61475   0.96267   0.32301   1.000
    O87     O    0.11479   0.96265   0.32307   1.000
    O88     O    0.61476   0.53733   0.32306   1.000
    O89     O    0.11478   0.53734   0.32307   1.000
    O90     O    0.97412   0.03116   0.67688   1.000
    O91     O    0.39031   0.03117   0.67685   1.000
    N92     N    0.74407   0.35522   0.08328   1.000
    N93     N    0.74392   0.14478   0.08315   1.000
    O94     O    0.63770   0.10499   0.99195   1.000
    O95     O    0.63755   0.39501   0.99223   1.000
    O96     O    0.65782   0.32103   0.18679   1.000
    O97     O    0.67072   0.38662   0.18677   1.000
    O98     O    0.67029   0.11339   0.18652   1.000
    O99     O    0.65740   0.17896   0.18657   1.000
    O100    O    0.87553   0.46120   0.08395   1.000
    O101    O    0.87541   0.03882   0.08396   1.000
    O102    O    0.81780   0.21053   0.06918   1.000
    N103    N    0.74469   0.14478   0.41637   1.000
    N104    N    0.74465   0.35520   0.41641   1.000
    O105    O    0.67186   0.11339   0.31264   1.000
    O106    O    0.65897   0.17896   0.31268   1.000
    O107    O    0.63736   0.39505   0.50716   1.000
    O108    O    0.63734   0.10493   0.50710   1.000
    O109    O    0.87599   0.03874   0.41605   1.000
    O110    O    0.65890   0.32098   0.31274   1.000
    O111    O    0.67180   0.38657   0.31272   1.000
    O112    O    0.87595   0.46126   0.41606   1.000
    O113    O    0.81827   0.28945   0.43051   1.000
    N114    N    0.26067   0.85521   0.58349   1.000
    N115    N    0.26067   0.64479   0.58351   1.000
    O116    O    0.14484   0.53874   0.58393   1.000
    O117    O    0.36776   0.60500   0.49266   1.000
    O118    O    0.34652   0.82101   0.68712   1.000
    O119    O    0.33360   0.88351   0.68709   1.000
    O120    O    0.34651   0.67901   0.68714   1.000
    O121    O    0.33361   0.61342   0.68711   1.000
    O122    O    0.14485   0.96125   0.58393   1.000
    O123    O    0.21115   0.95325   0.63463   1.000
    O124    O    0.36774   0.89500   0.49263   1.000
    O125    O    0.18696   0.78945   0.56957   1.000
    N126    N    0.76061   0.64478   0.91659   1.000
    N127    N    0.76059   0.85521   0.91659   1.000
    O128    O    0.88314   0.60490   0.00741   1.000
    O129    O    0.84652   0.82101   0.81297   1.000
    O130    O    0.64469   0.96119   0.91601   1.000
    O131    O    0.64473   0.53878   0.91605   1.000
    O132    O    0.88311   0.89512   0.00742   1.000
    O133    O    0.84653   0.67899   0.81296   1.000
    O134    O    0.68692   0.78944   0.93059   1.000
    N135    N    0.26058   0.64478   0.91662   1.000
    N136    N    0.26055   0.85523   0.91662   1.000
    O137    O    0.34646   0.82105   0.81299   1.000
    O138    O    0.33354   0.88354   0.81295   1.000
    O139    O    0.34648   0.67898   0.81299   1.000
    O140    O    0.33358   0.61339   0.81297   1.000
    O141    O    0.21099   0.95321   0.86540   1.000
    O142    O    0.14466   0.96122   0.91610   1.000
    O143    O    0.36760   0.89512   0.00741   1.000
    O144    O    0.36761   0.60491   0.00742   1.000
    O145    O    0.14471   0.53877   0.91609   1.000
    O146    O    0.18689   0.71054   0.93061   1.000
    N147    N    0.24423   0.35521   0.08338   1.000
    N148    N    0.24420   0.14479   0.08335   1.000
    O149    O    0.17097   0.11339   0.18688   1.000
    O150    O    0.15809   0.17897   0.18693   1.000
    O151    O    0.36009   0.03879   0.08394   1.000
    O152    O    0.13750   0.39500   0.99241   1.000
    O153    O    0.13750   0.10499   0.99238   1.000
    O154    O    0.36010   0.46122   0.08394   1.000
    O155    O    0.17101   0.38660   0.18691   1.000
    O156    O    0.15814   0.32102   0.18696   1.000
    O157    O    0.31801   0.21055   0.06923   1.000
    N158    N    0.76065   0.85522   0.58348   1.000
    N159    N    0.76065   0.64479   0.58348   1.000
    O160    O    0.88322   0.89500   0.49262   1.000
    O161    O    0.84651   0.67899   0.68710   1.000
    O162    O    0.88322   0.60500   0.49263   1.000
    O163    O    0.64485   0.96127   0.58390   1.000
    O164    O    0.64485   0.53873   0.58391   1.000
    O165    O    0.84651   0.82102   0.68710   1.000
    O166    O    0.68694   0.71054   0.56956   1.000
    N167    N    0.24466   0.35522   0.41650   1.000
    N168    N    0.24467   0.14478   0.41649   1.000
    O169    O    0.13739   0.39506   0.50725   1.000
    O170    O    0.36048   0.03874   0.41608   1.000
    O171    O    0.17177   0.11339   0.31280   1.000
    O172    O    0.15890   0.17897   0.31285   1.000
    O173    O    0.17176   0.38660   0.31281   1.000
    O174    O    0.15889   0.32102   0.31285   1.000
    O175    O    0.36047   0.46127   0.41609   1.000
    O176    O    0.13740   0.10493   0.50724   1.000
    O177    O    0.31827   0.28946   0.43058   1.000
loop_
    _geom_bond_atom_site_label_1
    _geom_bond_atom_site_label_2
    _geom_bond_distance
    _geom_bond_site_symmetry_2
    _ccdc_geom_bond_type
    Zr18   O48       0.81550      .   S
    Zr38   O48       0.81550      .   S
    Zr18   O49       1.12515  1_564   S
    Zr11   O49       1.12515      .   S
    Zr12   O50       0.81552      .   S
    Zr32   O50       0.81552      .   S
    Zr12   O51       1.12506  1_554   S
    Zr21   O51       1.12506      .   S
    Zr13   O52       0.58620      .   S
    Zr33   O52       0.58620      .   S
    Zr13   O53       0.95234      .   S
    Zr20   O53       0.95234  1_556   S
    Zr19   O54       0.58596      .   S
    Zr39   O54       0.58596      .   S
    Zr19   O55       0.95214  1_565   S
    Zr10   O55       0.95214  1_556   S
    Zr38   O56       1.36608      .   S
    Zr7    O56       1.36608      .   S
    Zr32   O57       1.36650      .   S
    Zr5    O57       1.36650      .   S
    Zr33   O58       1.36671      .   S
    Zr4    O58       1.36671      .   S
    Zr39   O59       1.36667      .   S
    Zr6    O59       1.36667      .   S
    Zr26   O60       0.79988      .   S
    Zr47   O60       0.79988      .   S
    Zr27   O61       0.80005      .   S
    Zr46   O61       0.80005  1_655   S
    Zr34   O62       0.81549      .   S
    Zr14   O62       0.81549      .   S
    Zr36   O63       0.81550      .   S
    Zr16   O63       0.81550      .   S
    Zr37   O64       0.58692      .   S
    Zr17   O64       0.58692      .   S
    Zr35   O65       0.58694      .   S
    Zr15   O65       0.58694      .   S
    Zr14   O66       1.12472      .   S
    Zr23   O66       1.12472  1_545   S
    Zr15   O67       0.95255      .   S
    Zr22   O67       0.95255  1_545   S
    Zr17   O68       0.95252      .   S
    Zr8    O68       0.95252      .   S
    Zr16   O69       1.12477      .   S
    Zr9    O69       1.12477      .   S
    Zr23   O70       0.81551      .   S
    Zr43   O70       0.81551      .   S
    Zr9    O71       0.81551      .   S
    Zr29   O71       0.81551      .   S
    Zr22   O72       0.81550      .   S
    Zr42   O72       0.81550  1_655   S
    Zr8    O73       0.81549      .   S
    Zr28   O73       0.81549  1_655   S
    Zr0    O74       1.36691      .   S
    Zr41   O74       1.36691      .   S
    Zr3    O75       1.27485  1_455   S
    Zr30   O75       1.27485      .   S
    Zr1    O76       1.24611  1_455   S
    Zr40   O76       1.24611      .   S
    Zr24   O77       0.80007      .   S
    Zr45   O77       0.80007  1_455   S
    Zr25   O78       0.80000      .   S
    Zr44   O78       0.80000      .   S
    Zr31   O79       0.81539      .   S
    Zr11   O79       0.81539      .   S
    Zr41   O80       0.81542      .   S
    Zr21   O80       0.81542      .   S
    Zr30   O81       0.81541  1_655   S
    Zr10   O81       0.81541      .   S
    Zr40   O82       0.81542  1_655   S
    Zr20   O82       0.81542      .   S
    Zr28   O83       1.24666      .   S
    Zr1    O83       1.24666  1_455   S
    Zr29   O84       1.36728      .   S
    Zr0    O84       1.36728      .   S
    Zr31   O85       1.39305      .   S
    Zr2    O85       1.39305      .   S
    Zr34   O86       1.36760      .   S
    Zr7    O86       1.36760      .   S
    Zr35   O87       1.36708      .   S
    Zr6    O87       1.36708      .   S
    Zr36   O88       1.36715      .   S
    Zr5    O88       1.36715      .   S
    Zr37   O89       1.36698      .   S
    Zr4    O89       1.36698      .   S
    Zr42   O90       1.27539      .   S
    Zr3    O90       1.27539  1_455   S
    Zr43   O91       1.39359      .   S
    Zr2    O91       1.39359      .   S
    N93    O94       1.93679  1_554   S
    Zr11   O94       1.44562      .   S
    N92    O95       1.93712  1_554   S
    Zr21   O95       1.44583      .   S
    N92    O96       1.95254      .   S
    Zr26   O96       1.48917      .   S
    N92    O97       1.87907      .   S
    Zr5    O97       2.07353      .   S
    N93    O98       1.87874      .   S
    Zr7    O98       2.07474  1_565   S
    N93    O99       1.95267      .   S
    Zr26   O99       1.49003      .   S
    N92    O100      2.09253      .   S
    Zr13   O100      1.79063  1_455   S
    N93    O101      2.09268      .   S
    Zr19   O101      1.79152  1_465   S
    N92    O102      2.24933      .   S
    N93    O102      1.26244      .   S
    N103   O105      1.88064      .   S
    Zr7    O105      2.07123  1_565   S
    N103   O106      1.95283      .   S
    Zr26   O106      1.48724      .   S
    N104   O107      1.93802      .   S
    Zr9    O107      1.44608      .   S
    N103   O108      1.93807      .   S
    Zr23   O108      1.44614      .   S
    N103   O109      2.09204      .   S
    Zr15   O109      1.78811  1_465   S
    N104   O110      1.95286      .   S
    Zr26   O110      1.48753      .   S
    N104   O111      1.88014      .   S
    Zr5    O111      2.07198      .   S
    N104   O112      2.09210      .   S
    Zr17   O112      1.78830  1_455   S
    N103   O113      2.24862      .   S
    N104   O113      1.26120      .   S
    N115   O116      1.98154      .   S
    Zr8    O116      1.44772      .   S
    N115   O117      1.93765      .   S
    Zr16   O117      1.44596      .   S
    N114   O118      1.95280      .   S
    Zr25   O118      1.48829      .   S
    N114   O119      1.86895      .   S
    Zr2    O119      1.95619  1_545   S
    N115   O120      1.95280      .   S
    Zr25   O120      1.48827      .   S
    N115   O121      1.87930      .   S
    Zr0    O121      2.07257      .   S
    N114   O122      1.98153      .   S
    Zr22   O122      1.44771  1_545   S
    N114   O123      1.71816      .   S
    Zr2    O123      2.35201  1_545   S
    N114   O124      1.93765      .   S
    Zr14   O124      1.44593      .   S
    N115   O125      2.24859      .   S
    N114   O125      1.26133      .   S
    N126   O128      2.04331  1_556   S
    Zr13   O128      1.76585  1_455   S
    N127   O129      1.95241      .   S
    Zr24   O129      1.48768      .   S
    N127   O130      1.98140      .   S
    Zr11   O130      1.44701  1_545   S
    N126   O131      1.98142      .   S
    Zr21   O131      1.44717      .   S
    N127   O132      2.04345  1_556   S
    Zr19   O132      1.76619  1_455   S
    N126   O133      1.95243      .   S
    Zr24   O133      1.48773      .   S
    N126   O134      2.24865      .   S
    N127   O134      1.26127      .   S
    N136   O137      1.95236      .   S
    Zr25   O137      1.48760      .   S
    N136   O138      1.86957      .   S
    Zr2    O138      1.95665  1_545   S
    N135   O139      1.95233      .   S
    Zr25   O139      1.48761      .   S
    N135   O140      1.87973      .   S
    Zr0    O140      2.07289      .   S
    N136   O141      1.71837      .   S
    Zr2    O141      2.35336  1_545   S
    N136   O142      1.98145      .   S
    Zr10   O142      1.44737  1_545   S
    N136   O143      1.93787  1_556   S
    Zr18   O143      1.44617      .   S
    N135   O144      1.93783  1_556   S
    Zr12   O144      1.44613      .   S
    N135   O145      1.98144      .   S
    Zr20   O145      1.44737      .   S
    N136   O146      2.24890      .   S
    N135   O146      1.26130      .   S
    N148   O149      1.87904      .   S
    Zr6    O149      2.07310  1_565   S
    N148   O150      1.95267      .   S
    Zr27   O150      1.48903      .   S
    N148   O151      1.98146      .   S
    Zr18   O151      1.44776  1_565   S
    N147   O152      1.93739  1_554   S
    Zr20   O152      1.44607      .   S
    N148   O153      1.93735  1_554   S
    Zr10   O153      1.44603      .   S
    N147   O154      1.98148      .   S
    Zr12   O154      1.44775      .   S
    N147   O155      1.87908      .   S
    Zr4    O155      2.07305      .   S
    N147   O156      1.95267      .   S
    Zr27   O156      1.48891      .   S
    N147   O157      2.24926      .   S
    N148   O157      1.26240      .   S
    N158   O160      2.04273      .   S
    Zr15   O160      1.76452  1_455   S
    N159   O161      1.95269      .   S
    Zr24   O161      1.48812      .   S
    N159   O162      2.04275      .   S
    Zr17   O162      1.76462  1_455   S
    N158   O163      1.98147      .   S
    Zr23   O163      1.44772  1_545   S
    N159   O164      1.98148      .   S
    Zr9    O164      1.44768      .   S
    N158   O165      1.95270      .   S
    Zr24   O165      1.48818      .   S
    N158   O166      2.24873      .   S
    N159   O166      1.26134      .   S
    N167   O169      1.93791      .   S
    Zr8    O169      1.44606      .   S
    N168   O170      1.98145      .   S
    Zr14   O170      1.44739  1_565   S
    N168   O171      1.88042      .   S
    Zr6    O171      2.07208  1_565   S
    N168   O172      1.95249      .   S
    Zr27   O172      1.48719      .   S
    N167   O173      1.88030      .   S
    Zr4    O173      2.07215      .   S
    N167   O174      1.95251      .   S
    Zr27   O174      1.48724      .   S
    N167   O175      1.98144      .   S
    Zr16   O175      1.44741      .   S
    N168   O176      1.93793      .   S
    Zr22   O176      1.44606      .   S
    N168   O177      2.24869      .   S
    N167   O177      1.26119      .   S
