# CIF file generated by openbabel 2.4.90, see http://openbabel.sf.net
data_I
_chemical_name_common ''
_cell_length_a 14.331
_cell_length_b 14.334
_cell_length_c 26.528
_cell_angle_alpha 80.065
_cell_angle_beta 80.129
_cell_angle_gamma 86.374
_space_group_name_H-M_alt 'P 1'
_space_group_name_Hall 'P 1'
loop_
    _symmetry_equiv_pos_as_xyz
    x,y,z
loop_
    _atom_site_label
    _atom_site_type_symbol
    _atom_site_fract_x
    _atom_site_fract_y
    _atom_site_fract_z
    _atom_site_occupancy
    Zr0     Zr   0.11900   0.82363   0.91044   1.000
    Zr1     Zr   0.14478   0.59291   0.93165   1.000
    Zr2     Zr   0.82713   0.11896   0.41061   1.000
    Zr3     Zr   0.59635   0.14497   0.43131   1.000
    Zr4     Zr   0.17285   0.88060   0.58939   1.000
    Zr5     Zr   0.40362   0.85457   0.56870   1.000
    Zr6     Zr   0.88100   0.17627   0.08953   1.000
    Zr7     Zr   0.85523   0.40700   0.06828   1.000
    N8      N    0.29608   0.32558   0.67147   1.000
    O9      O    0.34066   0.55735   0.62750   1.000
    O10     O    0.24369   0.57061   0.63937   1.000
    O11     O    0.33533   0.11935   0.62583   1.000
    N12     N    0.00778   0.77457   0.21242   1.000
    O13     O    0.06996   0.68923   0.09040   1.000
    O14     O    0.92584   0.93152   0.29527   1.000
    O15     O    0.06041   0.78713   0.08072   1.000
    N16     N    0.77442   0.00711   0.71268   1.000
    O17     O    0.93126   0.92450   0.79543   1.000
    O18     O    0.78853   0.06002   0.58094   1.000
    O19     O    0.69063   0.06966   0.59037   1.000
    N20     N    0.99372   0.22472   0.78760   1.000
    O21     O    0.93078   0.31026   0.90959   1.000
    O22     O    0.94034   0.21236   0.91926   1.000
    O23     O    0.07489   0.06768   0.70487   1.000
    N24     N    0.32624   0.29764   0.17134   1.000
    O25     O    0.11978   0.33703   0.12562   1.000
    O26     O    0.57147   0.24638   0.13952   1.000
    O27     O    0.55793   0.34320   0.12724   1.000
    N28     N    0.67386   0.70230   0.82863   1.000
    O29     O    0.42857   0.75355   0.86043   1.000
    O30     O    0.88027   0.66291   0.87434   1.000
    O31     O    0.44212   0.65675   0.87273   1.000
    N32     N    0.79178   0.84374   0.57121   1.000
    O33     O    0.63353   0.84582   0.56867   1.000
    O34     O    0.94771   0.85556   0.57827   1.000
    N35     N    0.22550   0.99401   0.28734   1.000
    O36     O    0.21143   0.94039   0.41906   1.000
    O37     O    0.30933   0.93073   0.40964   1.000
    O38     O    0.06868   0.07603   0.20456   1.000
    N39     N    0.70408   0.67403   0.32858   1.000
    O40     O    0.66475   0.88025   0.37419   1.000
    O41     O    0.75635   0.42881   0.36058   1.000
    O42     O    0.65946   0.44225   0.37258   1.000
    N43     N    0.84403   0.79471   0.07115   1.000
    O44     O    0.85572   0.95079   0.07830   1.000
    O45     O    0.84644   0.63660   0.06848   1.000
    N46     N    0.20851   0.15587   0.42881   1.000
    O47     O    0.05243   0.14397   0.42175   1.000
    O48     O    0.36661   0.15378   0.43134   1.000
    N49     N    0.15594   0.20535   0.92885   1.000
    O50     O    0.15354   0.36338   0.93149   1.000
    O51     O    0.14425   0.04917   0.92170   1.000
loop_
    _geom_bond_atom_site_label_1
    _geom_bond_atom_site_label_2
    _geom_bond_distance
    _geom_bond_site_symmetry_2
    _ccdc_geom_bond_type
    N8     O9        3.38846      .   S
    Zr5    O9        4.37137      .   S
    N8     O10       3.53261      .   S
    Zr4    O10       4.51551      .   S
    N8     O11       3.36331      .   S
    Zr5    O11       4.32038  1_565   S
    N12    O13       3.60640      .   S
    Zr1    O13       4.58939  1_556   S
    N12    O14       3.42915  1_455   S
    Zr2    O14       4.41066  1_545   S
    N12    O15       3.42105      .   S
    Zr0    O15       4.39592  1_556   S
    N16    O17       3.42523  1_545   S
    Zr0    O17       4.40870  1_455   S
    N16    O18       3.41928      .   S
    Zr2    O18       4.39556      .   S
    N16    O19       3.60120      .   S
    Zr3    O19       4.58198      .   S
    N20    O21       3.60803      .   S
    Zr7    O21       4.59129  1_554   S
    N20    O22       3.42092      .   S
    Zr6    O22       4.39606  1_554   S
    N20    O23       3.42562  1_655   S
    Zr4    O23       4.40799  1_565   S
    N24    O25       3.36550      .   S
    Zr7    O25       4.32003  1_655   S
    N24    O26       3.53181      .   S
    Zr6    O26       4.50830      .   S
    N24    O27       3.39101      .   S
    Zr7    O27       4.37609      .   S
    N28    O29       3.53253      .   S
    Zr0    O29       4.50886      .   S
    N28    O30       3.36479      .   S
    Zr1    O30       4.31929  1_455   S
    N28    O31       3.39162      .   S
    Zr1    O31       4.37664      .   S
    N32    O33       2.27864      .   S
    Zr5    O33       3.28907      .   S
    N32    O34       2.29337      .   S
    Zr4    O34       3.33706  1_455   S
    N35    O36       3.41958      .   S
    Zr4    O36       4.39594      .   S
    N35    O37       3.60207      .   S
    Zr5    O37       4.58283      .   S
    N35    O38       3.42369  1_565   S
    Zr6    O38       4.40723  1_655   S
    N39    O40       3.36289      .   S
    Zr3    O40       4.31948  1_545   S
    N39    O41       3.53447      .   S
    Zr2    O41       4.51367      .   S
    N39    O42       3.38878      .   S
    Zr3    O42       4.37230      .   S
    N43    O44       2.29660      .   S
    Zr6    O44       3.34410  1_545   S
    N43    O45       2.27742      .   S
    Zr7    O45       3.28638      .   S
    N46    O47       2.29568      .   S
    Zr2    O47       3.33932  1_655   S
    N46    O48       2.27635      .   S
    Zr3    O48       3.28680      .   S
    N49    O50       2.27623      .   S
    Zr1    O50       3.28528      .   S
    N49    O51       2.29788      .   S
    Zr0    O51       3.34525  1_565   S
