# CIF file generated by openbabel 2.4.90, see http://openbabel.sf.net
data_I
_chemical_name_common ''
_cell_length_a 10.086
_cell_length_b 11.597
_cell_length_c 14.793
_cell_angle_alpha 91.115
_cell_angle_beta 90.06
_cell_angle_gamma 90.013
_space_group_name_H-M_alt 'P 1'
_space_group_name_Hall 'P 1'
loop_
    _symmetry_equiv_pos_as_xyz
    x,y,z
loop_
    _atom_site_label
    _atom_site_type_symbol
    _atom_site_fract_x
    _atom_site_fract_y
    _atom_site_fract_z
    _atom_site_occupancy
    Zn0     Zn   0.88766   0.74044   0.30948   1.000
    Zn1     Zn   0.57641   0.74509   0.37071   1.000
    Zn2     Zn   0.38720   0.75955   0.19071   1.000
    Zn3     Zn   0.92483   0.24507   0.87066   1.000
    Zn4     Zn   0.11230   0.25957   0.69049   1.000
    Zn5     Zn   0.42356   0.25492   0.62926   1.000
    Zn6     Zn   0.61277   0.24045   0.80926   1.000
    Zn7     Zn   0.99999   0.50000   0.99999   1.000
    Zn8     Zn   0.49999   0.00000   0.49999   1.000
    Zn9     Zn   0.00000   0.00000   1.00000   1.000
    Zn10    Zn   0.49998   0.50000   0.49999   1.000
    Zn11    Zn   0.07515   0.75493   0.12931   1.000
