# CIF file generated by openbabel 2.4.90, see http://openbabel.sf.net
data_I
_chemical_name_common ''
_cell_length_a 22.672
_cell_length_b 22.189
_cell_length_c 29.054
_cell_angle_alpha 90.096
_cell_angle_beta 90.041
_cell_angle_gamma 89.324
_space_group_name_H-M_alt 'P 1'
_space_group_name_Hall 'P 1'
loop_
    _symmetry_equiv_pos_as_xyz
    x,y,z
loop_
    _atom_site_label
    _atom_site_type_symbol
    _atom_site_fract_x
    _atom_site_fract_y
    _atom_site_fract_z
    _atom_site_occupancy
    Zr0     Zr   0.30739   0.83088   0.67780   1.000
    Zr1     Zr   0.80740   0.83088   0.67780   1.000
    Zr2     Zr   0.37766   0.89592   0.76660   1.000
    Zr3     Zr   0.87767   0.89592   0.76660   1.000
    Zr4     Zr   0.24243   0.87738   0.76006   1.000
    Zr5     Zr   0.74244   0.87738   0.76006   1.000
    Zr6     Zr   0.34518   0.96369   0.68573   1.000
    Zr7     Zr   0.84519   0.96369   0.68573   1.000
    Zr8     Zr   0.19255   0.16807   0.17780   1.000
    Zr9     Zr   0.69255   0.16807   0.17780   1.000
    Zr10    Zr   0.12237   0.10192   0.26620   1.000
    Zr11    Zr   0.62237   0.10192   0.26620   1.000
    Zr12    Zr   0.25761   0.12257   0.25995   1.000
    Zr13    Zr   0.75761   0.12257   0.25995   1.000
    Zr14    Zr   0.15525   0.03419   0.18574   1.000
    Zr15    Zr   0.65526   0.03419   0.18574   1.000
    Zr16    Zr   0.44226   0.32860   0.67781   1.000
    Zr17    Zr   0.94227   0.32860   0.67781   1.000
    Zr18    Zr   0.36999   0.39566   0.76593   1.000
    Zr19    Zr   0.87000   0.39566   0.76593   1.000
    Zr20    Zr   0.00536   0.37466   0.76012   1.000
    Zr21    Zr   0.50537   0.37466   0.76012   1.000
    Zr22    Zr   0.40466   0.46307   0.68436   1.000
    Zr23    Zr   0.90467   0.46307   0.68436   1.000
    Zr24    Zr   0.05523   0.66971   0.17756   1.000
    Zr25    Zr   0.55524   0.66971   0.17756   1.000
    Zr26    Zr   0.12772   0.60417   0.26592   1.000
    Zr27    Zr   0.62772   0.60417   0.26592   1.000
    Zr28    Zr   0.49235   0.62498   0.25999   1.000
    Zr29    Zr   0.99236   0.62498   0.25999   1.000
    Zr30    Zr   0.09508   0.53680   0.18424   1.000
    Zr31    Zr   0.59508   0.53680   0.18424   1.000
    Zr32    Zr   0.31054   0.90274   0.72200   1.000
    Zr33    Zr   0.81055   0.90274   0.72200   1.000
    Zr34    Zr   0.18969   0.09610   0.22182   1.000
    Zr35    Zr   0.68970   0.09610   0.22182   1.000
    Zr36    Zr   0.43747   0.40101   0.72170   1.000
    Zr37    Zr   0.93748   0.40101   0.72170   1.000
    Zr38    Zr   0.06034   0.59809   0.22159   1.000
    Zr39    Zr   0.56035   0.59809   0.22159   1.000
    O40     O    0.07771   0.56744   0.20292   1.000
    O41     O    0.57772   0.56744   0.20292   1.000
    O42     O    0.67248   0.06514   0.20378   1.000
    O43     O    0.17247   0.06514   0.20378   1.000
    O44     O    0.52635   0.61153   0.24079   1.000
    O45     O    0.02635   0.61153   0.24079   1.000
    O46     O    0.22365   0.10934   0.24089   1.000
    O47     O    0.72366   0.10934   0.24089   1.000
    O48     O    0.42107   0.43204   0.70303   1.000
    O49     O    0.92107   0.43204   0.70303   1.000
    O50     O    0.32786   0.93322   0.70386   1.000
    O51     O    0.82787   0.93322   0.70386   1.000
    O52     O    0.97142   0.38784   0.74091   1.000
    O53     O    0.47142   0.38784   0.74091   1.000
    O54     O    0.27649   0.89006   0.74103   1.000
    O55     O    0.77649   0.89006   0.74103   1.000
    O56     O    0.30897   0.86681   0.69990   1.000
    O57     O    0.34410   0.89933   0.74430   1.000
    O58     O    0.80897   0.86681   0.69990   1.000
    O59     O    0.84411   0.89933   0.74430   1.000
    O60     O    0.19112   0.13208   0.19981   1.000
    O61     O    0.15603   0.09901   0.24401   1.000
    O62     O    0.69113   0.13208   0.19981   1.000
    O63     O    0.65604   0.09901   0.24401   1.000
    O64     O    0.43987   0.36481   0.69976   1.000
    O65     O    0.40373   0.39834   0.74382   1.000
    O66     O    0.93987   0.36481   0.69976   1.000
    O67     O    0.90374   0.39834   0.74382   1.000
    O68     O    0.05779   0.63390   0.19958   1.000
    O69     O    0.09403   0.60113   0.24375   1.000
    O70     O    0.55779   0.63390   0.19958   1.000
    O71     O    0.59404   0.60113   0.24375   1.000
    N72     N    0.44492   0.23355   0.04611   1.000
    O73     O    0.41312   0.30423   0.92002   1.000
    O74     O    0.47072   0.30685   0.91969   1.000
    O75     O    0.54509   0.20358   0.11249   1.000
    O76     O    0.51551   0.17347   0.14814   1.000
    O77     O    0.34177   0.19909   0.10896   1.000
    O78     O    0.36980   0.17669   0.14467   1.000
    N79     N    0.05419   0.76627   0.54627   1.000
    O80     O    0.98417   0.82521   0.64870   1.000
    O81     O    0.12980   0.82323   0.64480   1.000
    O82     O    0.95447   0.79600   0.61260   1.000
    O83     O    0.08527   0.69562   0.42007   1.000
    O84     O    0.02767   0.69296   0.41972   1.000
    O85     O    0.15777   0.80053   0.60905   1.000
    N86     N    0.48091   0.87896   0.39684   1.000
    O87     O    0.39795   0.86202   0.52098   1.000
    O88     O    0.41802   0.91816   0.52547   1.000
    O89     O    0.54738   0.96901   0.33585   1.000
    O90     O    0.55920   0.93953   0.29735   1.000
    O91     O    0.51680   0.79492   0.29428   1.000
    O92     O    0.48882   0.77449   0.33032   1.000
    N93     N    0.73070   0.62205   0.89637   1.000
    O94     O    0.80841   0.55971   0.79790   1.000
    O95     O    0.76788   0.70606   0.79424   1.000
    O96     O    0.73906   0.72713   0.83014   1.000
    O97     O    0.64724   0.63908   0.02059   1.000
    O98     O    0.66789   0.58266   0.02454   1.000
    O99     O    0.79602   0.53044   0.83516   1.000
    N100    N    0.23070   0.62205   0.89636   1.000
    O101    O    0.26787   0.70606   0.79424   1.000
    O102    O    0.23906   0.72713   0.83014   1.000
    O103    O    0.14723   0.63908   0.02059   1.000
    O104    O    0.16789   0.58266   0.02454   1.000
    O105    O    0.29601   0.53044   0.83515   1.000
    O106    O    0.30841   0.55971   0.79790   1.000
    N107    N    0.51876   0.11966   0.89729   1.000
    O108    O    0.51005   0.22455   0.83064   1.000
    O109    O    0.60189   0.13641   0.02130   1.000
    O110    O    0.58189   0.08004   0.02572   1.000
    O111    O    0.45255   0.02932   0.83623   1.000
    O112    O    0.44124   0.05860   0.79902   1.000
    O113    O    0.48176   0.20372   0.79475   1.000
    N114    N    0.01876   0.11966   0.89729   1.000
    O115    O    0.98176   0.20372   0.79475   1.000
    O116    O    0.01004   0.22455   0.83064   1.000
    O117    O    0.10189   0.13641   0.02130   1.000
    O118    O    0.08189   0.08004   0.02572   1.000
    O119    O    0.95256   0.02932   0.83623   1.000
    O120    O    0.94124   0.05860   0.79902   1.000
    N121    N    0.80274   0.73485   0.04606   1.000
    O122    O    0.70274   0.70474   0.11244   1.000
    O123    O    0.73340   0.67534   0.14829   1.000
    O124    O    0.83449   0.80496   0.92023   1.000
    O125    O    0.77694   0.80883   0.91964   1.000
    O126    O    0.90620   0.70024   0.10856   1.000
    O127    O    0.87907   0.67858   0.14462   1.000
    N128    N    0.30273   0.73485   0.04606   1.000
    O129    O    0.23340   0.67534   0.14829   1.000
    O130    O    0.33448   0.80496   0.92023   1.000
    O131    O    0.27694   0.80883   0.91964   1.000
    O132    O    0.40619   0.70024   0.10856   1.000
    O133    O    0.37906   0.67858   0.14462   1.000
    O134    O    0.20273   0.70474   0.11244   1.000
    N135    N    0.76888   0.37800   0.39622   1.000
    O136    O    0.85173   0.36040   0.52064   1.000
    O137    O    0.83186   0.41734   0.52450   1.000
    O138    O    0.70268   0.46946   0.33509   1.000
    O139    O    0.69132   0.44027   0.29769   1.000
    O140    O    0.73189   0.29358   0.29409   1.000
    O141    O    0.76065   0.27287   0.33004   1.000
    N142    N    0.26887   0.37800   0.39622   1.000
    O143    O    0.33185   0.41734   0.52450   1.000
    O144    O    0.20268   0.46946   0.33509   1.000
    O145    O    0.19131   0.44027   0.29769   1.000
    O146    O    0.35173   0.36040   0.52064   1.000
    O147    O    0.23189   0.29358   0.29409   1.000
    O148    O    0.26065   0.27287   0.33004   1.000
    N149    N    0.19537   0.26478   0.54600   1.000
    O150    O    0.16446   0.19375   0.42005   1.000
    O151    O    0.29512   0.29462   0.61242   1.000
    O152    O    0.26452   0.32436   0.64826   1.000
    O153    O    0.22217   0.19095   0.41955   1.000
    O154    O    0.09168   0.29854   0.60891   1.000
    O155    O    0.11889   0.32111   0.64472   1.000
    N156    N    0.94492   0.23355   0.04611   1.000
    O157    O    0.91312   0.30423   0.92002   1.000
    O158    O    0.01550   0.17347   0.14814   1.000
    O159    O    0.97072   0.30685   0.91969   1.000
    O160    O    0.84176   0.19910   0.10896   1.000
    O161    O    0.86980   0.17669   0.14467   1.000
    O162    O    0.04509   0.20358   0.11249   1.000
    N163    N    0.55420   0.76627   0.54627   1.000
    O164    O    0.65777   0.80053   0.60905   1.000
    O165    O    0.62981   0.82323   0.64480   1.000
    O166    O    0.45447   0.79600   0.61260   1.000
    O167    O    0.48417   0.82521   0.64870   1.000
    O168    O    0.58528   0.69562   0.42007   1.000
    O169    O    0.52767   0.69296   0.41972   1.000
    N170    N    0.98088   0.87896   0.39684   1.000
    O171    O    0.89793   0.86202   0.52098   1.000
    O172    O    0.91801   0.91816   0.52548   1.000
    O173    O    0.04736   0.96901   0.33585   1.000
    O174    O    0.98853   0.77449   0.33032   1.000
    O175    O    0.05918   0.93953   0.29736   1.000
    O176    O    0.01678   0.79492   0.29429   1.000
    N177    N    0.69538   0.26478   0.54600   1.000
    O178    O    0.79513   0.29462   0.61242   1.000
    O179    O    0.76453   0.32436   0.64826   1.000
    O180    O    0.66446   0.19375   0.42005   1.000
    O181    O    0.72218   0.19095   0.41955   1.000
    O182    O    0.59168   0.29854   0.60891   1.000
    O183    O    0.61890   0.32111   0.64472   1.000
loop_
    _geom_bond_atom_site_label_1
    _geom_bond_atom_site_label_2
    _geom_bond_distance
    _geom_bond_site_symmetry_2
    _ccdc_geom_bond_type
    Zr30   O40       0.95104      .   S
    Zr38   O40       0.95104      .   S
    Zr31   O41       0.95104      .   S
    Zr39   O41       0.95104      .   S
    Zr15   O42       0.95067      .   S
    Zr35   O42       0.95067      .   S
    Zr14   O43       0.95066      .   S
    Zr34   O43       0.95066      .   S
    Zr39   O44       0.99451      .   S
    Zr28   O44       0.99451      .   S
    Zr38   O45       0.99440      .   S
    Zr29   O45       0.99440  1_655   S
    Zr34   O46       0.99496      .   S
    Zr12   O46       0.99496      .   S
    Zr35   O47       0.99495      .   S
    Zr13   O47       0.99495      .   S
    Zr22   O48       0.94949      .   S
    Zr36   O48       0.94949      .   S
    Zr23   O49       0.94948      .   S
    Zr37   O49       0.94948      .   S
    Zr6    O50       0.94701      .   S
    Zr32   O50       0.94701      .   S
    Zr7    O51       0.94701      .   S
    Zr33   O51       0.94701      .   S
    Zr37   O52       0.99187      .   S
    Zr20   O52       0.99187  1_455   S
    Zr36   O53       0.99198      .   S
    Zr21   O53       0.99198      .   S
    Zr32   O54       0.99356      .   S
    Zr4    O54       0.99356      .   S
    Zr33   O55       0.99356      .   S
    Zr5    O55       0.99356      .   S
    Zr32   O56       1.02380      .   S
    Zr0    O56       1.02380      .   S
    Zr32   O57       1.00128      .   S
    Zr2    O57       1.00128      .   S
    Zr33   O58       1.02380      .   S
    Zr1    O58       1.02380      .   S
    Zr33   O59       1.00128      .   S
    Zr3    O59       1.00128      .   S
    Zr34   O60       1.02462      .   S
    Zr8    O60       1.02462      .   S
    Zr34   O61       1.00085      .   S
    Zr10   O61       1.00085      .   S
    Zr35   O62       1.02461      .   S
    Zr9    O62       1.02461      .   S
    Zr35   O63       1.00086      .   S
    Zr11   O63       1.00086      .   S
    Zr36   O64       1.02578      .   S
    Zr16   O64       1.02578      .   S
    Zr36   O65       1.00169      .   S
    Zr18   O65       1.00169      .   S
    Zr37   O66       1.02578      .   S
    Zr17   O66       1.02578      .   S
    Zr37   O67       1.00169      .   S
    Zr19   O67       1.00169      .   S
    Zr38   O68       1.02197      .   S
    Zr24   O68       1.02197      .   S
    Zr38   O69       1.00149      .   S
    Zr26   O69       1.00149      .   S
    Zr39   O70       1.02197      .   S
    Zr25   O70       1.02197      .   S
    Zr39   O71       1.00149      .   S
    Zr27   O71       1.00149      .   S
    N72    O73       4.04843  1_554   S
    Zr18   O73       5.00918      .   S
    N72    O74       4.06494  1_554   S
    Zr21   O74       4.94293      .   S
    N72    O75       3.04664      .   S
    Zr9    O75       3.91558      .   S
    N72    O76       3.61693      .   S
    Zr11   O76       4.48006      .   S
    N72    O77       3.07277      .   S
    Zr8    O77       3.99857      .   S
    N72    O78       3.57240      .   S
    Zr12   O78       4.38497      .   S
    N79    O80       3.61004  1_455   S
    Zr3    O80       4.46440      .   S
    N79    O81       3.57270      .   S
    Zr4    O81       4.38457      .   S
    N79    O82       3.03780  1_455   S
    Zr1    O82       3.90495      .   S
    N79    O83       4.04416      .   S
    Zr26   O83       5.00324      .   S
    N79    O84       4.06527      .   S
    Zr29   O84       4.94493  1_655   S
    N79    O85       3.07426      .   S
    Zr0    O85       3.99876      .   S
    N86    O87       4.08900      .   S
    Zr0    O87       5.05069      .   S
    N86    O88       4.08967      .   S
    Zr6    O88       5.03817      .   S
    N86    O89       3.08061      .   S
    Zr11   O89       3.97817  1_545   S
    N86    O90       3.65894      .   S
    Zr15   O90       4.45095  1_545   S
    N86    O91       3.60080      .   S
    Zr25   O91       4.46042      .   S
    N86    O92       3.01923      .   S
    Zr28   O92       3.89347      .   S
    N93    O94       3.62460      .   S
    Zr23   O94       4.48541      .   S
    N93    O95       3.61226      .   S
    Zr1    O95       4.47358      .   S
    N93    O96       3.03329      .   S
    Zr5    O96       3.91100      .   S
    N93    O97       4.09137  1_556   S
    Zr25   O97       5.05774      .   S
    N93    O98       4.08759  1_556   S
    Zr31   O98       5.03537      .   S
    N93    O99       3.06718      .   S
    Zr19   O99       3.95841      .   S
    N100   O101      3.61221      .   S
    Zr0    O101      4.47353      .   S
    N100   O102      3.03325      .   S
    Zr4    O102      3.91096      .   S
    N100   O103      4.09143  1_556   S
    Zr24   O103      5.05781      .   S
    N100   O104      4.08765  1_556   S
    Zr30   O104      5.03543      .   S
    N100   O105      3.06714      .   S
    Zr18   O105      3.95838      .   S
    N100   O106      3.62454      .   S
    Zr22   O106      4.48536      .   S
    N107   O108      3.03471      .   S
    Zr21   O108      3.91379      .   S
    N107   O109      4.08342  1_556   S
    Zr9    O109      5.04004      .   S
    N107   O110      4.08872  1_556   S
    Zr15   O110      5.03809      .   S
    N107   O111      3.07810      .   S
    Zr2    O111      3.97880  1_565   S
    N107   O112      3.62120      .   S
    Zr6    O112      4.48185  1_565   S
    N107   O113      3.61076      .   S
    Zr16   O113      4.47115      .   S
    N114   O115      3.61071  1_455   S
    Zr17   O115      4.47111      .   S
    N114   O116      3.03469      .   S
    Zr20   O116      3.91377      .   S
    N114   O117      4.08342  1_556   S
    Zr8    O117      5.04004      .   S
    N114   O118      4.08873  1_556   S
    Zr14   O118      5.03810      .   S
    N114   O119      3.07803  1_455   S
    Zr3    O119      3.97875  1_565   S
    N114   O120      3.62114  1_455   S
    Zr7    O120      4.48179  1_565   S
    N121   O122      3.05817      .   S
    Zr25   O122      3.92969      .   S
    N121   O123      3.62016      .   S
    Zr27   O123      4.47582      .   S
    N121   O124      4.04392  1_554   S
    Zr3    O124      5.00386      .   S
    N121   O125      4.06477  1_554   S
    Zr5    O125      4.94099      .   S
    N121   O126      3.05700      .   S
    Zr24   O126      3.97931  1_455   S
    N121   O127      3.56461      .   S
    Zr29   O127      4.37912      .   S
    N128   O129      3.62016      .   S
    Zr26   O129      4.47582      .   S
    N128   O130      4.04392  1_554   S
    Zr2    O130      5.00386      .   S
    N128   O131      4.06477  1_554   S
    Zr4    O131      4.94099      .   S
    N128   O132      3.05705      .   S
    Zr25   O132      3.97950      .   S
    N128   O133      3.56461      .   S
    Zr28   O133      4.37912      .   S
    N128   O134      3.05818      .   S
    Zr24   O134      3.92969      .   S
    N135   O136      4.08959      .   S
    Zr17   O136      5.05246      .   S
    N135   O137      4.08682      .   S
    Zr23   O137      5.03379      .   S
    N135   O138      3.07607      .   S
    Zr27   O138      3.96949      .   S
    N135   O139      3.62568      .   S
    Zr31   O139      4.48511      .   S
    N135   O140      3.61016      .   S
    Zr9    O140      4.47092      .   S
    N135   O141      3.02803      .   S
    Zr13   O141      3.90589      .   S
    N142   O143      4.08680      .   S
    Zr22   O143      5.03377      .   S
    N142   O144      3.07608      .   S
    Zr26   O144      3.96949      .   S
    N142   O145      3.62569      .   S
    Zr30   O145      4.48511      .   S
    N142   O146      4.08958      .   S
    Zr16   O146      5.05245      .   S
    N142   O147      3.61017      .   S
    Zr8    O147      4.47093      .   S
    N142   O148      3.02803      .   S
    Zr12   O148      3.90590      .   S
    N149   O150      4.04571      .   S
    Zr10   O150      5.00540      .   S
    N149   O151      3.04995      .   S
    Zr16   O151      3.91807      .   S
    N149   O152      3.61414      .   S
    Zr18   O152      4.46863      .   S
    N149   O153      4.06323      .   S
    Zr12   O153      4.93986      .   S
    N149   O154      3.06415      .   S
    Zr17   O154      3.98483  1_655   S
    N149   O155      3.56915      .   S
    Zr20   O155      4.38249      .   S
    N156   O157      4.04834  1_554   S
    Zr19   O157      5.00909      .   S
    N156   O158      3.61699  1_655   S
    Zr10   O158      4.48013      .   S
    N156   O159      4.06490  1_554   S
    Zr20   O159      4.94286  1_455   S
    N156   O160      3.07268      .   S
    Zr9    O160      3.99845      .   S
    N156   O161      3.57238      .   S
    Zr13   O161      4.38492      .   S
    N156   O162      3.04669  1_655   S
    Zr8    O162      3.91562      .   S
    N163   O164      3.07428      .   S
    Zr1    O164      3.99879      .   S
    N163   O165      3.57271      .   S
    Zr5    O165      4.38459      .   S
    N163   O166      3.03789      .   S
    Zr0    O166      3.90506      .   S
    N163   O167      3.61009      .   S
    Zr2    O167      4.46447      .   S
    N163   O168      4.04416      .   S
    Zr27   O168      5.00324      .   S
    N163   O169      4.06528      .   S
    Zr28   O169      4.94496      .   S
    N170   O171      4.08869      .   S
    Zr1    O171      5.05041      .   S
    N170   O172      4.08942      .   S
    Zr7    O172      5.03793      .   S
    N170   O173      3.08084  1_655   S
    Zr10   O173      3.97837  1_545   S
    N170   O174      3.01900      .   S
    Zr29   O174      3.89360      .   S
    N170   O175      3.65918  1_655   S
    Zr14   O175      4.45119  1_545   S
    N170   O176      3.60095  1_655   S
    Zr24   O176      4.46055      .   S
    N177   O178      3.04995      .   S
    Zr17   O178      3.91808      .   S
    N177   O179      3.61414      .   S
    Zr19   O179      4.46863      .   S
    N177   O180      4.04571      .   S
    Zr11   O180      5.00540      .   S
    N177   O181      4.06323      .   S
    Zr13   O181      4.93986      .   S
    N177   O182      3.06421      .   S
    Zr16   O182      3.98503      .   S
    N177   O183      3.56916      .   S
    Zr21   O183      4.38250      .   S
