# CIF file generated by openbabel 2.4.90, see http://openbabel.sf.net
data_I
_chemical_name_common ''
_cell_length_a 7.721
_cell_length_b 10.168
_cell_length_c 13.463
_cell_angle_alpha 68.148
_cell_angle_beta 84.677
_cell_angle_gamma 76.446
_space_group_name_H-M_alt 'P 1'
_space_group_name_Hall 'P 1'
loop_
    _symmetry_equiv_pos_as_xyz
    x,y,z
loop_
    _atom_site_label
    _atom_site_type_symbol
    _atom_site_fract_x
    _atom_site_fract_y
    _atom_site_fract_z
    _atom_site_occupancy
    Zr0     Zr   0.35457   0.15924   0.04682   1.000
    Zr1     Zr   0.64542   0.84064   0.95326   1.000
    Zr2     Zr   0.99998   0.49997   0.00004   1.000
    N3      N    0.26956   0.50997   0.42889   1.000
    N4      N    0.73038   0.48993   0.57117   1.000
    C5      C    0.65274   0.68319   0.85852   1.000
    O6      O    0.63568   0.74796   0.86548   1.000
    O7      O    0.75414   0.61933   0.91464   1.000
    O8      O    0.66550   0.70450   0.90294   1.000
    O9      O    0.67455   0.61331   0.77679   1.000
    C10     C    0.34726   0.31674   0.14151   1.000
    O11     O    0.36432   0.25195   0.13456   1.000
    O12     O    0.32543   0.38661   0.22325   1.000
    O13     O    0.24584   0.38060   0.08540   1.000
    O14     O    0.33449   0.29542   0.09710   1.000
    C15     C    0.67615   0.09558   0.90247   1.000
    O16     O    0.58441   0.11405   0.95862   1.000
    O17     O    0.67933   0.01869   0.89964   1.000
    O18     O    0.69124   0.22388   0.80661   1.000
    C19     C    0.32381   0.90432   0.09761   1.000
    O20     O    0.30870   0.77603   0.19346   1.000
    O21     O    0.41556   0.88585   0.04146   1.000
    O22     O    0.32063   0.98121   0.10044   1.000
    C23     C    0.84009   0.60956   0.15233   1.000
    O24     O    0.89802   0.55309   0.11562   1.000
    O25     O    0.77601   0.69796   0.09374   1.000
    O26     O    0.80612   0.57413   0.27914   1.000
    C27     C    0.15991   0.39034   0.84772   1.000
    O28     O    0.10197   0.44682   0.88444   1.000
    O29     O    0.22399   0.30193   0.90632   1.000
    O30     O    0.19386   0.42577   0.72092   1.000
loop_
    _geom_bond_atom_site_label_1
    _geom_bond_atom_site_label_2
    _geom_bond_distance
    _geom_bond_site_symmetry_2
    _ccdc_geom_bond_type
    C5     O6        0.68033      .   S
    Zr1    O6        1.78021      .   S
    C5     O7        1.05437      .   S
    Zr2    O7        2.16423  1_554   S
    C5     O8        0.72924      .   S
    Zr1    O8        1.72546      .   S
    C5     O9        1.49513      .   S
    N4     O9        3.39618      .   S
    C10    O11       0.68039      .   S
    Zr0    O11       1.78004      .   S
    C10    O12       1.49518      .   S
    N3     O12       3.39628      .   S
    C10    O13       1.05436      .   S
    Zr2    O13       2.16427  1_655   S
    C10    O14       0.72914      .   S
    Zr0    O14       1.72547      .   S
    C15    O16       1.02586      .   S
    Zr0    O16       2.09842  1_554   S
    C15    O17       0.79145      .   S
    Zr1    O17       1.75539  1_565   S
    C15    O18       1.47340      .   S
    N4     O18       3.35843      .   S
    C19    O20       1.47337      .   S
    N3     O20       3.35835      .   S
    C19    O21       1.02591      .   S
    Zr1    O21       2.09855  1_556   S
    C19    O22       0.79139      .   S
    Zr0    O22       1.75529  1_545   S
    C23    O24       0.90770      .   S
    Zr2    O24       1.87939      .   S
    C23    O25       1.00554      .   S
    Zr1    O25       2.07943  1_556   S
    C23    O26       1.61748      .   S
    N4     O26       3.71951      .   S
    C27    O28       0.90782      .   S
    Zr2    O28       1.87973  1_654   S
    C27    O29       1.00560      .   S
    Zr0    O29       2.07956  1_554   S
    C27    O30       1.61745      .   S
    N3     O30       3.71947      .   S
