# CIF file generated by openbabel 2.4.90, see http://openbabel.sf.net
data_I
_chemical_name_common ''
_cell_length_a 20.935
_cell_length_b 20.946
_cell_length_c 16.318
_cell_angle_alpha 80.949
_cell_angle_beta 81.04
_cell_angle_gamma 49.407
_space_group_name_H-M_alt 'P 1'
_space_group_name_Hall 'P 1'
loop_
    _symmetry_equiv_pos_as_xyz
    x,y,z
loop_
    _atom_site_label
    _atom_site_type_symbol
    _atom_site_fract_x
    _atom_site_fract_y
    _atom_site_fract_z
    _atom_site_occupancy
    C0      C    0.28705   0.40729   0.85153   1.000
    C1      C    0.28705   0.90728   0.85153   1.000
    C2      C    0.78704   0.40729   0.85153   1.000
    C3      C    0.78704   0.90728   0.85153   1.000
    C4      C    0.09718   0.49438   0.86869   1.000
    C5      C    0.09718   0.99437   0.86869   1.000
    C6      C    0.59718   0.49438   0.86869   1.000
    C7      C    0.59718   0.99436   0.86869   1.000
    C8      C    0.09199   0.21284   0.64850   1.000
    C9      C    0.09199   0.71283   0.64850   1.000
    C10     C    0.59198   0.21284   0.64850   1.000
    C11     C    0.59198   0.71283   0.64855   1.000
    O12     O    0.06501   0.06650   0.82960   1.000
    O13     O    0.06501   0.56649   0.82960   1.000
    O14     O    0.56500   0.06650   0.82961   1.000
    O15     O    0.56501   0.56649   0.82961   1.000
    O16     O    0.08033   0.44931   0.85360   1.000
    C17     C    0.00498   0.40264   0.63128   1.000
    C18     C    0.00499   0.90263   0.63128   1.000
    C19     C    0.50499   0.40264   0.63128   1.000
    C20     C    0.50499   0.90263   0.63128   1.000
    C21     C    0.21292   0.09272   0.14850   1.000
    C22     C    0.21292   0.59271   0.14850   1.000
    C23     C    0.71291   0.09272   0.14850   1.000
    C24     C    0.71292   0.59271   0.14850   1.000
    C25     C    0.40278   0.00563   0.13134   1.000
    C26     C    0.40278   0.50562   0.13134   1.000
    C27     C    0.90278   0.00563   0.13134   1.000
    C28     C    0.90278   0.50562   0.13134   1.000
    C29     C    0.40797   0.28717   0.35149   1.000
    C30     C    0.40798   0.78716   0.35149   1.000
    C31     C    0.90797   0.28717   0.35149   1.000
    C32     C    0.90797   0.78716   0.35149   1.000
    C33     C    0.49498   0.09736   0.36875   1.000
    C34     C    0.49498   0.59735   0.36875   1.000
    C35     C    0.99498   0.09736   0.36875   1.000
    C36     C    0.99498   0.59735   0.36875   1.000
    O37     O    0.36607   0.34539   0.84990   1.000
    O38     O    0.36607   0.84538   0.84990   1.000
    O39     O    0.86607   0.34539   0.84990   1.000
    O40     O    0.86607   0.84538   0.84990   1.000
    O41     O    0.25196   0.45327   0.78434   1.000
    O42     O    0.25196   0.95326   0.78434   1.000
    O43     O    0.75195   0.45327   0.78434   1.000
    O44     O    0.75195   0.95325   0.78434   1.000
    O45     O    0.08033   0.94930   0.85362   1.000
    O46     O    0.58033   0.44930   0.85361   1.000
    O47     O    0.58033   0.94929   0.85361   1.000
    O48     O    0.15349   0.13373   0.65024   1.000
    O49     O    0.15349   0.63372   0.65024   1.000
    O50     O    0.65348   0.13372   0.65024   1.000
    O51     O    0.65348   0.63372   0.65024   1.000
    O52     O    0.04639   0.24788   0.71573   1.000
    O53     O    0.04639   0.74787   0.71573   1.000
    O54     O    0.54639   0.24789   0.71573   1.000
    O55     O    0.54639   0.74788   0.71573   1.000
    O56     O    0.43300   0.43449   0.67031   1.000
    O57     O    0.43300   0.93448   0.67031   1.000
    O58     O    0.93300   0.43449   0.67031   1.000
    O59     O    0.93300   0.93448   0.67031   1.000
    O60     O    0.04991   0.41970   0.64637   1.000
    O61     O    0.04992   0.91969   0.64637   1.000
    O62     O    0.54992   0.41970   0.64637   1.000
    O63     O    0.54992   0.91969   0.64637   1.000
    O64     O    0.13389   0.15462   0.15013   1.000
    O65     O    0.13389   0.65461   0.15013   1.000
    O66     O    0.63389   0.15462   0.15013   1.000
    O67     O    0.63389   0.65461   0.15013   1.000
    O68     O    0.24801   0.04674   0.21569   1.000
    O69     O    0.24801   0.54673   0.21569   1.000
    O70     O    0.74801   0.04674   0.21569   1.000
    O71     O    0.74801   0.54673   0.21569   1.000
    O72     O    0.43495   0.43351   0.17042   1.000
    O73     O    0.43496   0.93350   0.17042   1.000
    O74     O    0.93495   0.43351   0.17042   1.000
    O75     O    0.93495   0.93349   0.17042   1.000
    O76     O    0.41964   0.05070   0.14641   1.000
    O77     O    0.41964   0.55069   0.14641   1.000
    O78     O    0.91964   0.05069   0.14641   1.000
    O79     O    0.91964   0.55068   0.14641   1.000
    O80     O    0.34647   0.36628   0.34979   1.000
    O81     O    0.34647   0.86627   0.34900   1.000
    O82     O    0.84646   0.36628   0.34979   1.000
    O83     O    0.84646   0.86627   0.34979   1.000
    O84     O    0.45357   0.25213   0.28430   1.000
    O85     O    0.45357   0.75212   0.28430   1.000
    O86     O    0.95357   0.25213   0.28430   1.000
    O87     O    0.95357   0.75212   0.28430   1.000
    O88     O    0.06696   0.06552   0.32972   1.000
    O89     O    0.06697   0.56551   0.32970   1.000
    O90     O    0.56697   0.06552   0.32970   1.000
    O91     O    0.56697   0.56551   0.32970   1.000
    O92     O    0.45004   0.08031   0.35366   1.000
    O93     O    0.45005   0.58030   0.35366   1.000
    O94     O    0.95005   0.08031   0.35366   1.000
    O95     O    0.95005   0.58029   0.35366   1.000
loop_
    _geom_bond_atom_site_label_1
    _geom_bond_atom_site_label_2
    _geom_bond_distance
    _geom_bond_site_symmetry_2
    _ccdc_geom_bond_type
    C27    O78       1.26880      .   S
    C27    O75       1.28429  1_545   S
    C28    O79       1.26880      .   S
    C28    O74       1.28395      .   S
    C25    O76       1.26880      .   S
    C25    O73       1.28429  1_545   S
    C26    O77       1.26879      .   S
    C26    O72       1.28397      .   S
    C21    O64       1.27455      .   S
    C21    O68       1.29124      .   S
    C22    O65       1.27455      .   S
    C22    O69       1.29124      .   S
    C23    O66       1.27454      .   S
    C23    O70       1.29124      .   S
    C24    O67       1.27454      .   S
    C24    O71       1.29123      .   S
    O87    C32       1.29131      .   S
    O86    C31       1.29131      .   S
    O85    C30       1.29129      .   S
    O84    C29       1.29129      .   S
    O89    C36       1.28393  1_455   S
    O90    C33       1.28398      .   S
    O91    C34       1.28398      .   S
    O88    C35       1.28382  1_455   S
    O81    C30       1.27434      .   S
    O82    C31       1.27460      .   S
    O83    C32       1.27460      .   S
    O80    C29       1.27460      .   S
    O94    C35       1.26899      .   S
    O93    C34       1.26899      .   S
    O92    C33       1.26900      .   S
    O95    C36       1.26899      .   S
    C20    O63       1.26900      .   S
    C20    O57       1.28387      .   S
    C19    O62       1.26901      .   S
    C19    O56       1.28387      .   S
    C18    O61       1.26899      .   S
    C18    O59       1.28383  1_455   S
    C17    O60       1.26901      .   S
    C17    O58       1.28382  1_455   S
    C8     O48       1.27458      .   S
    C8     O52       1.29186      .   S
    C9     O49       1.27459      .   S
    C9     O53       1.29186      .   S
    C10    O50       1.27458      .   S
    C10    O54       1.29184      .   S
    C11    O51       1.27460      .   S
    C11    O55       1.29117      .   S
    O41    C0        1.29122      .   S
    O42    C1        1.29123      .   S
    O43    C2        1.29124      .   S
    O44    C3        1.29123      .   S
    O12    C5        1.28435  1_545   S
    O13    C4        1.28404      .   S
    O14    C7        1.28431  1_545   S
    O15    C6        1.28397      .   S
    O39    C2        1.27454      .   S
    O40    C3        1.27455      .   S
    O37    C0        1.27454      .   S
    O38    C1        1.27453      .   S
    O16    C4        1.26891      .   S
    O46    C6        1.26882      .   S
    O47    C7        1.26884      .   S
    O45    C5        1.26880      .   S
