# CIF file generated by openbabel 2.4.90, see http://openbabel.sf.net
data_I
_chemical_name_common ''
_cell_length_a 15.345
_cell_length_b 15.371
_cell_length_c 22.383
_cell_angle_alpha 84.315
_cell_angle_beta 87.394
_cell_angle_gamma 81.031
_space_group_name_H-M_alt 'P 1'
_space_group_name_Hall 'P 1'
loop_
    _symmetry_equiv_pos_as_xyz
    x,y,z
loop_
    _atom_site_label
    _atom_site_type_symbol
    _atom_site_fract_x
    _atom_site_fract_y
    _atom_site_fract_z
    _atom_site_occupancy
    N0      N    0.70107   0.38371   0.74080   1.000
    N1      N    0.80205   0.12335   0.25596   1.000
    N2      N    0.68862   0.89296   0.24189   1.000
    N3      N    0.31138   0.10716   0.75815   1.000
    N4      N    0.29893   0.61631   0.25920   1.000
    N5      N    0.19896   0.87669   0.74404   1.000
    Zr6     Zr   0.30239   0.11715   0.25779   1.000
    O7      O    0.30627   0.11671   0.10566   1.000
    O8      O    0.12231   0.12177   0.25691   1.000
    O9      O    0.30419   0.11115   0.41013   1.000
    O10     O    0.30240   0.93659   0.25893   1.000
    O11     O    0.48244   0.11699   0.25691   1.000
    O12     O    0.29945   0.29679   0.25809   1.000
    Zr13    Zr   0.69764   0.88348   0.74221   1.000
    O14     O    0.69376   0.88364   0.89435   1.000
    O15     O    0.69762   0.06374   0.74107   1.000
    O16     O    0.69583   0.88920   0.58988   1.000
    O17     O    0.70057   0.70354   0.74191   1.000
    O18     O    0.87797   0.87855   0.74309   1.000
    O19     O    0.51783   0.88334   0.74309   1.000
loop_
    _geom_bond_atom_site_label_1
    _geom_bond_atom_site_label_2
    _geom_bond_distance
    _geom_bond_site_symmetry_2
    _ccdc_geom_bond_type
    Zr6    O7        3.40353      .   S
    N3     O7        7.79075  1_556   S
    Zr6    O8        2.75404      .   S
    N1     O8        4.91164  1_655   S
    Zr6    O9        3.40332      .   S
    N3     O9        7.78958      .   S
    Zr6    O10       2.77303  1_545   S
    N4     O10       4.93088      .   S
    Zr6    O11       2.76171      .   S
    N1     O11       4.91964      .   S
    Zr6    O12       2.75516      .   S
    N4     O12       4.91277      .   S
    Zr13   O14       3.40339      .   S
    N2     O14       7.79119  1_554   S
    Zr13   O15       2.76835  1_565   S
    N0     O15       4.92620      .   S
    Zr13   O16       3.40336      .   S
    N2     O16       7.78905      .   S
    Zr13   O17       2.75984      .   S
    N0     O17       4.91743      .   S
    Zr13   O18       2.75723      .   S
    N5     O18       4.92233  1_455   S
    Zr13   O19       2.75864      .   S
    N5     O19       4.90907      .   S
