# CIF file generated by openbabel 2.4.90, see http://openbabel.sf.net
data_I
_chemical_name_common ''
_cell_length_a 16.978
_cell_length_b 23.612
_cell_length_c 15.943
_cell_angle_alpha 95.36
_cell_angle_beta 105.337
_cell_angle_gamma 99.088
_space_group_name_H-M_alt 'P 1'
_space_group_name_Hall 'P 1'
loop_
    _symmetry_equiv_pos_as_xyz
    x,y,z
loop_
    _atom_site_label
    _atom_site_type_symbol
    _atom_site_fract_x
    _atom_site_fract_y
    _atom_site_fract_z
    _atom_site_occupancy
    H0      H    0.11893   0.02705   0.99123   1.000
    H1      H    0.61892   0.02705   0.99123   1.000
    H2      H    0.38186   0.05804   0.00768   1.000
    H3      H    0.88186   0.05804   0.00768   1.000
    H4      H    0.12452   0.13164   0.99255   1.000
    H5      H    0.62452   0.13164   0.99254   1.000
    H6      H    0.37590   0.16065   0.00507   1.000
    H7      H    0.87590   0.16065   0.00507   1.000
    H8      H    0.38106   0.97296   0.00877   1.000
    H9      H    0.88106   0.97296   0.00877   1.000
    H10     H    0.11813   0.94197   0.99232   1.000
    H11     H    0.61813   0.94197   0.99233   1.000
    H12     H    0.37547   0.86837   0.00745   1.000
    H13     H    0.87546   0.86837   0.00744   1.000
    H14     H    0.12409   0.83936   0.99493   1.000
    H15     H    0.62409   0.83936   0.99493   1.000
    C16     C    0.17800   0.05447   0.99514   1.000
    C17     C    0.67799   0.05447   0.99513   1.000
    C18     C    0.32268   0.07126   0.00424   1.000
    C19     C    0.82268   0.07126   0.00424   1.000
    C20     C    0.25022   0.03147   0.99992   1.000
    C21     C    0.75022   0.03147   0.99991   1.000
    C22     C    0.18035   0.11360   0.99561   1.000
    C23     C    0.68035   0.11359   0.99561   1.000
    C24     C    0.32047   0.12983   0.00391   1.000
    C25     C    0.82046   0.12983   0.00391   1.000
    C26     C    0.32199   0.94554   0.00486   1.000
    C27     C    0.82199   0.94554   0.00486   1.000
    C28     C    0.17731   0.92875   0.99576   1.000
    C29     C    0.67731   0.92875   0.99576   1.000
    C30     C    0.31964   0.88642   0.00438   1.000
    C31     C    0.81963   0.88642   0.00438   1.000
    C32     C    0.17952   0.87018   0.99608   1.000
    C33     C    0.67952   0.87018   0.99608   1.000
    N34     N    0.25063   0.15113   0.00000   1.000
    N35     N    0.75062   0.15112   0.00000   1.000
    N36     N    0.24936   0.84889   0.99943   1.000
    N37     N    0.74936   0.84889   0.99943   1.000
loop_
    _geom_bond_atom_site_label_1
    _geom_bond_atom_site_label_2
    _geom_bond_distance
    _geom_bond_site_symmetry_2
    _ccdc_geom_bond_type
    N34    C24       1.34821      .   S
    N34    C22       1.35052  1_554   S
    N35    C25       1.34822      .   S
    N35    C23       1.35053  1_554   S
    C25    C19       1.38987      .   S
    C25    H7        1.08975      .   S
    C24    C18       1.38987      .   S
    C24    H6        1.08975      .   S
    C18    H2        1.08780      .   S
    C18    C20       1.40666  1_554   S
    C19    H3        1.08782      .   S
    C19    C21       1.40663  1_554   S
    C30    C26       1.38959      .   S
    C30    H12       1.09056      .   S
    C30    N36       1.34836  1_554   S
    C31    C27       1.38961      .   S
    C31    H13       1.09057      .   S
    C31    N37       1.34832  1_554   S
    C27    H9        1.08768      .   S
    C26    H8        1.08768      .   S
    H1     C17       1.08773      .   S
    H0     C16       1.08769      .   S
    H10    C28       1.08781      .   S
    H11    C29       1.08782      .   S
    H5     C23       1.09056      .   S
    H4     C22       1.09057      .   S
    H14    C32       1.08977      .   S
    H15    C33       1.08976      .   S
    C17    C23       1.38957      .   S
    C17    C21       1.40461      .   S
    C16    C22       1.38959      .   S
    C16    C20       1.40461      .   S
    C28    C32       1.38987      .   S
    C29    C33       1.38987      .   S
    C32    N36       1.34961      .   S
    C33    N37       1.34961      .   S
