# CIF file generated by openbabel 2.4.90, see http://openbabel.sf.net
data_I
_chemical_name_common ''
_cell_length_a 13.69
_cell_length_b 16.701
_cell_length_c 16.701
_cell_angle_alpha 87.613
_cell_angle_beta 78.271
_cell_angle_gamma 78.214
_space_group_name_H-M_alt 'P 1'
_space_group_name_Hall 'P 1'
loop_
    _symmetry_equiv_pos_as_xyz
    x,y,z
loop_
    _atom_site_label
    _atom_site_type_symbol
    _atom_site_fract_x
    _atom_site_fract_y
    _atom_site_fract_z
    _atom_site_occupancy
    H0      H    0.36066   0.77781   0.64022   1.000
    H1      H    0.86067   0.77781   0.64022   1.000
    H2      H    0.29635   0.87308   0.60867   1.000
    H3      H    0.79635   0.87308   0.60867   1.000
    H4      H    0.47639   0.86609   0.63434   1.000
    H5      H    0.97640   0.86609   0.63434   1.000
    H6      H    0.02508   0.79767   0.55067   1.000
    H7      H    0.52509   0.79767   0.55067   1.000
    H8      H    0.32345   0.98675   0.54940   1.000
    H9      H    0.82346   0.98675   0.54940   1.000
    H10     H    0.40879   0.00948   0.60891   1.000
    H11     H    0.90880   0.00948   0.60891   1.000
    H12     H    0.08924   0.94922   0.57294   1.000
    H13     H    0.58925   0.94922   0.57294   1.000
    H14     H    0.13518   0.87929   0.49038   1.000
    H15     H    0.63519   0.87929   0.49038   1.000
    H16     H    0.11138   0.71949   0.39469   1.000
    H17     H    0.61139   0.71949   0.39469   1.000
    H18     H    0.18762   0.79580   0.39068   1.000
    H19     H    0.68763   0.79580   0.39068   1.000
    H20     H    0.01674   0.71319   0.29117   1.000
    H21     H    0.51675   0.71319   0.29117   1.000
    H22     H    0.06869   0.72186   0.85986   1.000
    H23     H    0.56869   0.72187   0.85986   1.000
    H24     H    0.03632   0.62659   0.89159   1.000
    H25     H    0.53632   0.62659   0.89150   1.000
    H26     H    0.22561   0.63401   0.86584   1.000
    H27     H    0.72561   0.63401   0.86580   1.000
    H28     H    0.19845   0.70233   0.94958   1.000
    H29     H    0.69846   0.70233   0.94958   1.000
    H30     H    0.09158   0.51262   0.95032   1.000
    H31     H    0.59159   0.51262   0.95030   1.000
    H32     H    0.21786   0.49052   0.89096   1.000
    H33     H    0.71787   0.49052   0.89096   1.000
    H34     H    0.34967   0.55128   0.92723   1.000
    H35     H    0.84968   0.55129   0.92723   1.000
    H36     H    0.31938   0.62107   0.00000   1.000
    H37     H    0.81938   0.62107   0.00000   1.000
    H38     H    0.16819   0.78047   0.10526   1.000
    H39     H    0.66820   0.78048   0.10526   1.000
    H40     H    0.28046   0.70416   0.10937   1.000
    H41     H    0.78047   0.70416   0.10937   1.000
    H42     H    0.01895   0.78676   0.20862   1.000
    H43     H    0.51895   0.78676   0.20862   1.000
    H44     H    0.17990   0.85985   0.77785   1.000
    H45     H    0.67991   0.85985   0.77785   1.000
    H46     H    0.10007   0.89131   0.87314   1.000
    H47     H    0.60007   0.89131   0.87310   1.000
    H48     H    0.29287   0.86577   0.86599   1.000
    H49     H    0.79288   0.86577   0.86599   1.000
    H50     H    0.29974   0.94952   0.79765   1.000
    H51     H    0.79975   0.94952   0.79765   1.000
    H52     H    0.09799   0.95049   0.98690   1.000
    H53     H    0.59800   0.95049   0.98689   1.000
    H54     H    0.21309   0.89103   0.00943   1.000
    H55     H    0.71310   0.89102   0.00943   1.000
    H56     H    0.37538   0.92712   0.94905   1.000
    H57     H    0.87538   0.92712   0.94905   1.000
    H58     H    0.38005   0.00000   0.87920   1.000
    H59     H    0.88006   0.00000   0.87920   1.000
    H60     H    0.30862   0.10529   0.71946   1.000
    H61     H    0.80863   0.10529   0.71946   1.000
    H62     H    0.38286   0.10932   0.79582   1.000
    H63     H    0.88287   0.10932   0.79582   1.000
    H64     H    0.16245   0.20876   0.71310   1.000
    H65     H    0.66246   0.20876   0.71310   1.000
    H66     H    0.99985   0.64027   0.72198   1.000
    H67     H    0.49986   0.64027   0.72198   1.000
    H68     H    0.48298   0.60856   0.62678   1.000
    H69     H    0.98299   0.60856   0.62678   1.000
    H70     H    0.15950   0.63439   0.63378   1.000
    H71     H    0.65951   0.63439   0.63378   1.000
    H72     H    0.17429   0.55071   0.70220   1.000
    H73     H    0.67430   0.55071   0.70222   1.000
    H74     H    0.06685   0.54959   0.51300   1.000
    H75     H    0.56686   0.54959   0.51302   1.000
    H76     H    0.16354   0.60900   0.49044   1.000
    H77     H    0.66354   0.60900   0.49044   1.000
    H78     H    0.31387   0.57287   0.55087   1.000
    H79     H    0.81388   0.57287   0.55087   1.000
    H80     H    0.32498   0.49027   0.62078   1.000
    H81     H    0.82498   0.49027   0.62078   1.000
    H82     H    0.22134   0.39477   0.78039   1.000
    H83     H    0.72135   0.39477   0.78039   1.000
    C84     C    0.57910   0.93478   0.51124   1.000
    C85     C    0.15952   0.75576   0.35429   1.000
    C86     C    0.65953   0.75576   0.35429   1.000
    C87     C    0.06672   0.67734   0.91025   1.000
    H88     H    0.33560   0.39071   0.70416   1.000
    H89     H    0.83561   0.39071   0.70416   1.000
    H90     H    0.12360   0.29133   0.78664   1.000
    H91     H    0.62361   0.29133   0.78664   1.000
    H92     H    0.13936   0.22219   0.35970   1.000
    H93     H    0.63936   0.22219   0.35970   1.000
    H94     H    0.20367   0.12692   0.39130   1.000
    H95     H    0.70368   0.12692   0.39130   1.000
    H96     H    0.02363   0.13391   0.36563   1.000
    H97     H    0.52364   0.13391   0.36563   1.000
    H98     H    0.47494   0.20233   0.44930   1.000
    H99     H    0.97494   0.20233   0.44930   1.000
    H100    H    0.17657   0.01325   0.45057   1.000
    H101    H    0.67658   0.01325   0.45057   1.000
    H102    H    0.09123   0.99052   0.39106   1.000
    H103    H    0.59123   0.99052   0.39106   1.000
    H104    H    0.41078   0.05078   0.42703   1.000
    H105    H    0.91078   0.05078   0.42703   1.000
    H106    H    0.36483   0.12070   0.50959   1.000
    H107    H    0.86484   0.12070   0.50959   1.000
    H108    H    0.38864   0.28051   0.60528   1.000
    H109    H    0.88865   0.28051   0.60528   1.000
    H110    H    0.31240   0.20420   0.60920   1.000
    H111    H    0.81241   0.20420   0.60920   1.000
    H112    H    0.48328   0.28681   0.70880   1.000
    H113    H    0.98328   0.28680   0.70880   1.000
    H114    H    0.43133   0.27813   0.14011   1.000
    H115    H    0.93134   0.27813   0.14011   1.000
    C116    C    0.32540   0.04641   0.00000   1.000
    C117    C    0.82541   0.04641   0.00000   1.000
    C118    C    0.16554   0.01115   0.06528   1.000
    C119    C    0.66554   0.01115   0.06528   1.000
    C120    C    0.16338   0.85429   0.24420   1.000
    H121    H    0.46370   0.37341   0.10838   1.000
    H122    H    0.96371   0.37341   0.10838   1.000
    H123    H    0.27441   0.36599   0.13413   1.000
    H124    H    0.77442   0.36599   0.13413   1.000
    H125    H    0.30157   0.29767   0.05030   1.000
    H126    H    0.80157   0.29767   0.05038   1.000
    H127    H    0.40843   0.48738   0.04965   1.000
    H128    H    0.90844   0.48738   0.04965   1.000
    H129    H    0.28216   0.50948   0.10901   1.000
    H130    H    0.78216   0.50948   0.10901   1.000
    H131    H    0.15035   0.44871   0.07274   1.000
    H132    H    0.65036   0.44871   0.07274   1.000
    H133    H    0.18064   0.37893   0.99005   1.000
    H134    H    0.68065   0.37893   0.99005   1.000
    H135    H    0.33183   0.21952   0.89470   1.000
    H136    H    0.83183   0.21952   0.89470   1.000
    H137    H    0.21956   0.29584   0.89060   1.000
    H138    H    0.71957   0.29584   0.89060   1.000
    H139    H    0.48107   0.21324   0.79135   1.000
    H140    H    0.98108   0.21324   0.79135   1.000
    H141    H    0.32011   0.14015   0.22212   1.000
    H142    H    0.82012   0.14015   0.22212   1.000
    H143    H    0.39995   0.10869   0.12683   1.000
    H144    H    0.89996   0.10869   0.12683   1.000
    H145    H    0.20715   0.13423   0.13398   1.000
    H146    H    0.70715   0.13423   0.13398   1.000
    H147    H    0.20028   0.05048   0.20232   1.000
    H148    H    0.70028   0.05048   0.20232   1.000
    H149    H    0.40202   0.04951   0.01307   1.000
    H150    H    0.90203   0.04951   0.01307   1.000
    H151    H    0.28693   0.10897   0.99050   1.000
    H152    H    0.78694   0.10897   0.99054   1.000
    H153    H    0.12464   0.07288   0.05091   1.000
    H154    H    0.62465   0.07288   0.05091   1.000
    H155    H    0.11997   0.99024   0.12077   1.000
    H156    H    0.61997   0.99024   0.12070   1.000
    H157    H    0.19140   0.89471   0.28051   1.000
    H158    H    0.69141   0.89471   0.28051   1.000
    H159    H    0.11716   0.89067   0.20415   1.000
    H160    H    0.61717   0.89067   0.20415   1.000
    H161    H    0.33757   0.79123   0.28687   1.000
    H162    H    0.83758   0.79123   0.28687   1.000
    H163    H    0.50017   0.35973   0.27799   1.000
    H164    H    0.00000   0.35973   0.27799   1.000
    H165    H    0.01704   0.39144   0.37318   1.000
    H166    H    0.51705   0.39144   0.37318   1.000
    H167    H    0.34052   0.36561   0.36610   1.000
    H168    H    0.84053   0.36561   0.36610   1.000
    H169    H    0.32573   0.44929   0.29775   1.000
    H170    H    0.82573   0.44929   0.29775   1.000
    H171    H    0.43317   0.45041   0.48695   1.000
    H172    H    0.93318   0.45041   0.48695   1.000
    H173    H    0.33648   0.39100   0.50953   1.000
    H174    H    0.83649   0.39100   0.50953   1.000
    H175    H    0.18615   0.42712   0.44910   1.000
    H176    H    0.68615   0.42712   0.44910   1.000
    H177    H    0.17504   0.50972   0.37918   1.000
    H178    H    0.67505   0.50972   0.37918   1.000
    H179    H    0.27868   0.60523   0.21958   1.000
    H180    H    0.77868   0.60523   0.21958   1.000
    H181    H    0.16441   0.60929   0.29581   1.000
    H182    H    0.66442   0.60929   0.29581   1.000
    H183    H    0.37641   0.70867   0.21333   1.000
    H184    H    0.87642   0.70867   0.21333   1.000
    C185    C    0.36140   0.82242   0.58991   1.000
    C186    C    0.86141   0.82242   0.58991   1.000
    C187    C    0.46361   0.84940   0.57440   1.000
    C188    C    0.96362   0.84940   0.57440   1.000
    C189    C    0.40155   0.99504   0.54636   1.000
    C190    C    0.90156   0.99504   0.54636   1.000
    C191    C    0.07909   0.93478   0.51124   1.000
    C192    C    0.56673   0.67735   0.91025   1.000
    C193    C    0.17471   0.65054   0.92579   1.000
    C194    C    0.67472   0.65054   0.92579   1.000
    C195    C    0.17223   0.50469   0.95349   1.000
    C196    C    0.67224   0.50469   0.95349   1.000
    C197    C    0.30164   0.56549   0.98894   1.000
    C198    C    0.80165   0.56549   0.98894   1.000
    C199    C    0.21430   0.74419   0.14570   1.000
    C200    C    0.71431   0.74419   0.14570   1.000
    C201    C    0.15563   0.91016   0.82246   1.000
    C202    C    0.65564   0.91016   0.82246   1.000
    C203    C    0.25018   0.92573   0.84930   1.000
    C204    C    0.75019   0.92573   0.84930   1.000
    C205    C    0.17462   0.95359   0.99510   1.000
    C206    C    0.67463   0.95358   0.99510   1.000
    C207    C    0.33448   0.98884   0.93469   1.000
    C208    C    0.83449   0.98884   0.93469   1.000
    C209    C    0.33663   0.14570   0.75576   1.000
    C210    C    0.83664   0.14571   0.75576   1.000
    C211    C    0.02287   0.58989   0.67745   1.000
    C212    C    0.52288   0.58989   0.67745   1.000
    C213    C    0.13850   0.57443   0.65040   1.000
    C214    C    0.63851   0.57443   0.65040   1.000
    C215    C    0.14909   0.54646   0.50483   1.000
    C216    C    0.64909   0.54646   0.50483   1.000
    C217    C    0.29655   0.51117   0.56527   1.000
    C218    C    0.79656   0.51117   0.56527   1.000
    C219    C    0.28756   0.35435   0.74417   1.000
    C220    C    0.78757   0.35434   0.74417   1.000
    C221    C    0.13862   0.17758   0.41006   1.000
    C222    C    0.63863   0.17758   0.41006   1.000
    C223    C    0.03641   0.15060   0.42557   1.000
    C224    C    0.53641   0.15060   0.42557   1.000
    C225    C    0.09847   0.00000   0.45361   1.000
    C226    C    0.59847   0.00000   0.45361   1.000
    C227    C    0.42092   0.06522   0.48873   1.000
    C228    C    0.92093   0.06522   0.48873   1.000
    C229    C    0.34050   0.24424   0.64567   1.000
    C230    C    0.84051   0.24424   0.64567   1.000
    C231    C    0.43330   0.32265   0.08970   1.000
    C232    C    0.93330   0.32265   0.08971   1.000
    C233    C    0.32531   0.34946   0.07418   1.000
    C234    C    0.82532   0.34946   0.07418   1.000
    C235    C    0.32778   0.49530   0.04640   1.000
    C236    C    0.82779   0.49530   0.04647   1.000
    C237    C    0.19837   0.43451   0.01100   1.000
    C238    C    0.69838   0.43451   0.01102   1.000
    C239    C    0.28572   0.25580   0.85427   1.000
    C240    C    0.78572   0.25580   0.85427   1.000
    C241    C    0.34439   0.08984   0.17751   1.000
    C242    C    0.84440   0.08984   0.17751   1.000
    C243    C    0.24983   0.07427   0.15059   1.000
    C244    C    0.74984   0.07427   0.15059   1.000
    C245    C    0.66339   0.85429   0.24421   1.000
    C246    C    0.47715   0.41010   0.32252   1.000
    C247    C    0.97716   0.41010   0.32252   1.000
    C248    C    0.36151   0.42557   0.34948   1.000
    C249    C    0.86152   0.42557   0.34948   1.000
    C250    C    0.35093   0.45354   0.49514   1.000
    C251    C    0.85094   0.45354   0.49514   1.000
    C252    C    0.20347   0.48882   0.43470   1.000
    C253    C    0.70348   0.48883   0.43470   1.000
    C254    C    0.21246   0.64565   0.25580   1.000
    C255    C    0.71246   0.64565   0.25580   1.000
    C256    C    0.06327   0.74997   0.24992   1.000
    C257    C    0.56328   0.74997   0.24992   1.000
    C258    C    0.18845   0.25004   0.74900   1.000
    C259    C    0.68846   0.25004   0.74900   1.000
    C260    C    0.43675   0.25002   0.75005   1.000
    C261    C    0.93676   0.25002   0.75005   1.000
    C262    C    0.31156   0.74996   0.25007   1.000
    C263    C    0.81157   0.74996   0.25007   1.000
    S264    S    0.33074   0.77056   0.50825   1.000
    S265    S    0.83075   0.77056   0.50825   1.000
    S266    S    0.46962   0.72936   0.99178   1.000
    S267    S    0.96963   0.72936   0.99178   1.000
    S268    S    0.08407   0.99174   0.77064   1.000
    S269    S    0.58408   0.99174   0.77060   1.000
    S270    S    0.46662   0.50823   0.72945   1.000
    S271    S    0.96663   0.50823   0.72945   1.000
    S272    S    0.16928   0.22944   0.49171   1.000
    S273    S    0.66928   0.22944   0.49171   1.000
    S274    S    0.03040   0.27063   0.00818   1.000
    S275    S    0.53041   0.27063   0.00818   1.000
    S276    S    0.41595   0.00825   0.22933   1.000
    S277    S    0.91596   0.00825   0.22933   1.000
    S278    S    0.03340   0.49177   0.27050   1.000
    S279    S    0.53340   0.49177   0.27050   1.000
    N280    N    0.47500   0.91900   0.51714   1.000
    N281    N    0.97501   0.91900   0.51714   1.000
    N282    N    0.09804   0.80600   0.29978   1.000
    N283    N    0.59805   0.80600   0.29978   1.000
    N284    N    0.19264   0.58089   0.98295   1.000
    N285    N    0.69265   0.58089   0.98295   1.000
    N286    N    0.15074   0.69394   0.20014   1.000
    N287    N    0.65075   0.69394   0.20014   1.000
    N288    N    0.23325   0.98292   0.91901   1.000
    N289    N    0.73326   0.98292   0.91901   1.000
    N290    N    0.24804   0.20019   0.80596   1.000
    N291    N    0.74805   0.20019   0.80596   1.000
    N292    N    0.18458   0.51716   0.58092   1.000
    N293    N    0.68459   0.51716   0.58092   1.000
    N294    N    0.25111   0.29986   0.69391   1.000
    N295    N    0.75112   0.29986   0.69391   1.000
    N296    N    0.02502   0.08100   0.48283   1.000
    N297    N    0.52503   0.08100   0.48283   1.000
    N298    N    0.40198   0.19400   0.70019   1.000
    N299    N    0.90199   0.19400   0.70019   1.000
    N300    N    0.30738   0.41911   0.01702   1.000
    N301    N    0.80738   0.41911   0.01702   1.000
    N302    N    0.34927   0.30605   0.79983   1.000
    N303    N    0.84928   0.30605   0.79983   1.000
    N304    N    0.26677   0.01707   0.08096   1.000
    N305    N    0.76677   0.01707   0.08096   1.000
    N306    N    0.25198   0.79981   0.19401   1.000
    N307    N    0.75199   0.79981   0.19401   1.000
    N308    N    0.31543   0.48284   0.41905   1.000
    N309    N    0.81544   0.48284   0.41905   1.000
    N310    N    0.24891   0.70013   0.30606   1.000
    N311    N    0.74892   0.70013   0.30606   1.000
    O312    O    0.31206   0.83348   0.44373   1.000
    O313    O    0.81207   0.83348   0.44373   1.000
    O314    O    0.23794   0.73992   0.54494   1.000
    O315    O    0.73794   0.73992   0.54494   1.000
    O316    O    0.42099   0.70436   0.47903   1.000
    O317    O    0.92100   0.70436   0.47903   1.000
    O318    O    0.45001   0.66654   0.05637   1.000
    O319    O    0.95002   0.66654   0.05637   1.000
    O320    O    0.37986   0.76006   0.95498   1.000
    O321    O    0.87986   0.76006   0.95498   1.000
    O322    O    0.01241   0.79555   0.02103   1.000
    O323    O    0.51241   0.79555   0.02103   1.000
    O324    O    0.03335   0.05627   0.83353   1.000
    O325    O    0.53336   0.05627   0.83353   1.000
    O326    O    0.00947   0.95496   0.74013   1.000
    O327    O    0.50947   0.95496   0.74013   1.000
    O328    O    0.15953   0.02103   0.70433   1.000
    O329    O    0.65954   0.02103   0.70433   1.000
    O330    O    0.47899   0.44373   0.66658   1.000
    O331    O    0.97900   0.44373   0.66658   1.000
    O332    O    0.35861   0.54498   0.76026   1.000
    O333    O    0.85862   0.54498   0.76026   1.000
    O334    O    0.02422   0.47895   0.79550   1.000
    O335    O    0.52423   0.47895   0.79550   1.000
    O336    O    0.18796   0.16652   0.55624   1.000
    O337    O    0.68796   0.16652   0.55624   1.000
    O338    O    0.26208   0.26008   0.45503   1.000
    O339    O    0.76209   0.26008   0.45503   1.000
    O340    O    0.07903   0.29564   0.52094   1.000
    O341    O    0.57904   0.29564   0.52094   1.000
    O342    O    0.05001   0.33346   0.94360   1.000
    O343    O    0.55002   0.33346   0.94360   1.000
    O344    O    0.12016   0.23994   0.04499   1.000
    O345    O    0.62017   0.23994   0.04499   1.000
    O346    O    0.48761   0.20445   0.97894   1.000
    O347    O    0.98762   0.20445   0.97894   1.000
    O348    O    0.46667   0.94373   0.16644   1.000
    O349    O    0.96668   0.94373   0.16644   1.000
    O350    O    0.49055   0.04504   0.25984   1.000
    O351    O    0.99056   0.04504   0.25984   1.000
    O352    O    0.34049   0.97897   0.29563   1.000
    O353    O    0.84050   0.97896   0.29563   1.000
    O354    O    0.02103   0.55627   0.33339   1.000
    O355    O    0.52104   0.55627   0.33339   1.000
    O356    O    0.14141   0.45502   0.23971   1.000
    O357    O    0.64142   0.45502   0.23971   1.000
    O358    O    0.47580   0.52105   0.20446   1.000
    O359    O    0.97581   0.52105   0.20446   1.000
loop_
    _geom_bond_atom_site_label_1
    _geom_bond_atom_site_label_2
    _geom_bond_distance
    _geom_bond_site_symmetry_2
    _ccdc_geom_bond_type
    H37    C198      1.03880  1_554   S
    H36    C197      1.03880  1_554   S
    C116   H149      1.12558      .   S
    C116   N304      1.54169      .   S
    C116   C207      1.45359  1_544   S
    C116   H151      1.09066  1_554   S
    C117   H150      1.12558      .   S
    C117   N305      1.54169      .   S
    C117   C208      1.45359  1_544   S
    C117   H152      1.09053  1_554   S
    S275   O345      1.47454      .   S
    S275   C231      1.80737      .   S
    S275   O343      1.49648  1_554   S
    S275   O346      1.49309  1_554   S
    S274   O344      1.47454      .   S
    S274   C232      1.80738  1_455   S
    S274   O342      1.49648  1_554   S
    S274   O347      1.49295  1_454   S
    H55    C206      1.10991  1_554   S
    H54    C205      1.10991  1_554   S
    C237   N300      1.48497      .   S
    C237   H131      1.11031      .   S
    C237   C195      1.51633  1_554   S
    C237   H133      1.09382  1_554   S
    C238   N301      1.48488      .   S
    C238   H132      1.11004      .   S
    C238   C196      1.51654  1_554   S
    C238   H134      1.09397  1_554   S
    N300   C235      1.48022      .   S
    N300   C233      1.48690      .   S
    N301   C236      1.48071      .   S
    N301   C234      1.48691      .   S
    O323   S266      1.49316  1_554   S
    O322   S267      1.49303  1_454   S
    C235   H127      1.09706      .   S
    C235   H129      1.11097      .   S
    C235   C197      1.51579  1_554   S
    C236   H128      1.09676      .   S
    C236   H130      1.10999      .   S
    C236   C198      1.51654  1_554   S
    H125   C233      1.09959      .   S
    H126   C234      1.09898      .   S
    H154   C119      1.10994      .   S
    H153   C118      1.10994      .   S
    O318   S266      1.49659  1_554   S
    O319   S267      1.49659  1_554   S
    C118   N304      1.48480      .   S
    C118   H155      1.09410  1_545   S
    C118   C205      1.51637  1_544   S
    C119   N305      1.48482      .   S
    C119   H156      1.09326  1_545   S
    C119   C206      1.51636  1_544   S
    C234   C232      1.52612      .   S
    C234   H124      1.10681      .   S
    C233   C231      1.52606      .   S
    C233   H123      1.10680      .   S
    N304   C243      1.48693      .   S
    N305   C244      1.48693      .   S
    C231   H121      1.09911      .   S
    C231   H114      1.09962      .   S
    C232   H122      1.09902      .   S
    C232   H115      1.09951      .   S
    H38    C199      1.09761      .   S
    H39    C200      1.09762      .   S
    H41    C200      1.09473      .   S
    H40    C199      1.09472      .   S
    H143   C241      1.09905      .   S
    H144   C242      1.09906      .   S
    H145   C243      1.10678      .   S
    H146   C244      1.10677      .   S
    C200   N307      1.48566      .   S
    C200   N287      1.48360      .   S
    C199   N306      1.48566      .   S
    C199   N286      1.48360      .   S
    C243   C241      1.52619      .   S
    C243   H147      1.09900      .   S
    C244   C242      1.52620      .   S
    C244   H148      1.09899      .   S
    O348   S276      1.49623  1_565   S
    O349   S277      1.49623  1_565   S
    C242   H142      1.09944      .   S
    C242   S277      1.80737      .   S
    C241   H141      1.09944      .   S
    C241   S276      1.80737      .   S
    N307   C245      1.48362      .   S
    N307   C263      1.48434      .   S
    N306   C120      1.48354      .   S
    N306   C262      1.48434      .   S
    N286   C256      1.48428      .   S
    N286   C254      1.48552      .   S
    N287   C257      1.48430      .   S
    N287   C255      1.48552      .   S
    H160   C245      1.09475      .   S
    H159   C120      1.09464      .   S
    O358   S279      1.49288      .   S
    O359   S278      1.49274  1_655   S
    H42    C256      1.09725      .   S
    H43    C257      1.09724      .   S
    H183   C262      1.09720      .   S
    H184   C263      1.09720      .   S
    H179   C254      1.09757      .   S
    H180   C255      1.09757      .   S
    S276   O350      1.47446      .   S
    S276   O352      1.49291  1_545   S
    S277   O351      1.47447      .   S
    S277   O353      1.49291  1_545   S
    O356   S278      1.47450      .   S
    O357   S279      1.47450      .   S
    C120   H157      1.09763      .   S
    C120   N282      1.48565      .   S
    C245   H158      1.09752      .   S
    C245   N283      1.48558      .   S
    C257   H21       1.09721      .   S
    C257   N283      1.48442      .   S
    C256   H20       1.09722      .   S
    C256   N282      1.48442      .   S
    C262   H161      1.09728      .   S
    C262   N310      1.48435      .   S
    C263   H162      1.09726      .   S
    C263   N311      1.48437      .   S
    C254   H181      1.09481      .   S
    C254   N310      1.48356      .   S
    C255   H182      1.09480      .   S
    C255   N311      1.48355      .   S
    S279   C246      1.80731      .   S
    S279   O355      1.49657      .   S
    S278   C247      1.80720  1_455   S
    S278   O354      1.49657      .   S
    H163   C246      1.09941      .   S
    H164   C247      1.09943  1_455   S
    H170   C249      1.09894      .   S
    H169   C248      1.09894      .   S
    N283   C86       1.48346      .   S
    N282   C85       1.48347      .   S
    N311   C86       1.48545      .   S
    N310   C85       1.48545      .   S
    C247   C249      1.52589      .   S
    C247   H165      1.09883  1_655   S
    C246   C248      1.52589      .   S
    C246   H166      1.09896      .   S
    C249   H168      1.10654      .   S
    C249   N309      1.48689      .   S
    C248   H167      1.10655      .   S
    C248   N308      1.48688      .   S
    C86    H19       1.09476      .   S
    C86    H17       1.09765      .   S
    C85    H18       1.09478      .   S
    C85    H16       1.09764      .   S
    H92    C221      1.10001      .   S
    H93    C222      1.10003      .   S
    H97    C224      1.10670      .   S
    H96    C223      1.10670      .   S
    H177   C252      1.09423      .   S
    H178   C253      1.09422      .   S
    H103   C226      1.09018  1_565   S
    H102   C225      1.09018  1_565   S
    H94    C221      1.09902      .   S
    H95    C222      1.09901      .   S
    C222   C224      1.52597      .   S
    C222   S273      1.80704      .   S
    C221   C223      1.52597      .   S
    C221   S272      1.80703      .   S
    N308   C252      1.48472      .   S
    N308   C250      1.48076      .   S
    N309   C253      1.48474      .   S
    N309   C251      1.48076      .   S
    C224   H98       1.09895      .   S
    C224   N297      1.48691      .   S
    C223   H99       1.09882  1_455   S
    C223   N296      1.48692      .   S
    H104   C227      1.10989      .   S
    H105   C228      1.10989      .   S
    C253   H176      1.10993      .   S
    C253   C216      1.51632      .   S
    C252   H175      1.10994      .   S
    C252   C215      1.51633      .   S
    O313   S265      1.49619      .   S
    O312   S264      1.49618      .   S
    H100   C225      1.12622      .   S
    H101   C226      1.12620      .   S
    C226   N297      1.54234      .   S
    C226   C84       1.45262  1_545   S
    C225   N296      1.54234      .   S
    C225   C191      1.45262  1_545   S
    O339   S273      1.47456      .   S
    O338   S272      1.47456      .   S
    O317   S265      1.49292      .   S
    O316   S264      1.49293      .   S
    N297   C227      1.48475      .   S
    N296   C228      1.48454  1_455   S
    H171   C250      1.09676      .   S
    H172   C251      1.09677      .   S
    C228   H107      1.09415      .   S
    C228   C190      1.51640  1_545   S
    C227   H106      1.09415      .   S
    C227   C189      1.51640  1_545   S
    H15    C84       1.09414      .   S
    H14    C191      1.09414      .   S
    H77    C216      1.10993      .   S
    H76    C215      1.10992      .   S
    S272   O340      1.49297      .   S
    S272   O336      1.49630      .   S
    S273   O341      1.49297      .   S
    S273   O337      1.49630      .   S
    C251   H174      1.10992      .   S
    C251   C218      1.51633      .   S
    C250   H173      1.10993      .   S
    C250   C217      1.51633      .   S
    C215   H74       1.09678      .   S
    C215   N292      1.48076      .   S
    C216   H75       1.09676      .   S
    C216   N293      1.48076      .   S
    S264   O314      1.47460      .   S
    S264   C185      1.80716      .   S
    S265   O315      1.47459      .   S
    S265   C186      1.80717      .   S
    C191   N281      1.48453  1_455   S
    C191   H12       1.10989      .   S
    C84    N280      1.48476      .   S
    C84    H13       1.10989      .   S
    N281   C190      1.48071      .   S
    N281   C188      1.48693      .   S
    N280   C189      1.48071      .   S
    N280   C187      1.48693      .   S
    C189   H8        1.09673      .   S
    C189   H10       1.10999  1_565   S
    C190   H9        1.09673      .   S
    C190   H11       1.10999  1_565   S
    H6     C188      1.09884  1_455   S
    H7     C187      1.09894      .   S
    H78    C217      1.10993      .   S
    H79    C218      1.10993      .   S
    C218   N293      1.48474      .   S
    C218   H81       1.09407      .   S
    C217   N292      1.48473      .   S
    C217   H80       1.09408      .   S
    C188   C186      1.52597      .   S
    C188   H5        1.10670      .   S
    C187   C185      1.52596      .   S
    C187   H4        1.10670      .   S
    N293   C214      1.48580      .   S
    N292   C213      1.48581      .   S
    C185   H2        1.09901      .   S
    C185   H0        1.09941      .   S
    C186   H3        1.09902      .   S
    C186   H1        1.09940      .   S
    H108   C229      1.09758      .   S
    H109   C230      1.09757      .   S
    H111   C230      1.09565      .   S
    H110   C229      1.09566      .   S
    H68    C212      1.09909      .   S
    H69    C211      1.09897  1_655   S
    H70    C213      1.10654      .   S
    H71    C214      1.10654      .   S
    C230   N295      1.48551      .   S
    C230   N299      1.48359      .   S
    C229   N294      1.48551      .   S
    C229   N298      1.48357      .   S
    C213   C211      1.52602      .   S
    C213   H72       1.09994      .   S
    C214   C212      1.52604      .   S
    C214   H73       1.10023      .   S
    O331   S271      1.49635      .   S
    O330   S270      1.49633      .   S
    C211   H66       1.09942  1_455   S
    C211   S271      1.80707  1_455   S
    C212   H67       1.09942      .   S
    C212   S270      1.80718      .   S
    N294   C219      1.48358      .   S
    N294   C258      1.47706      .   S
    N295   C220      1.48356      .   S
    N295   C259      1.47706      .   S
    N298   C260      1.48442      .   S
    N298   C209      1.48559      .   S
    N299   C261      1.48443      .   S
    N299   C210      1.48557      .   S
    H89    C220      1.09481      .   S
    H88    C219      1.09480      .   S
    O328   S268      1.49300  1_545   S
    O329   S269      1.49261  1_545   S
    H113   C261      1.09721      .   S
    H112   C260      1.09721      .   S
    H65    C259      1.08753      .   S
    H64    C258      1.08752      .   S
    H60    C209      1.09751      .   S
    H61    C210      1.09752      .   S
    S271   O333      1.47455      .   S
    S271   O334      1.49287  1_655   S
    S270   O332      1.47456      .   S
    S270   O335      1.49302      .   S
    O327   S269      1.47413      .   S
    O326   S268      1.47446      .   S
    C220   H83       1.09756      .   S
    C220   N303      1.48552      .   S
    C219   H82       1.09756      .   S
    C219   N302      1.48553      .   S
    C258   H90       1.10361      .   S
    C258   N290      1.49519      .   S
    C259   H91       1.10360      .   S
    C259   N291      1.49520      .   S
    C261   H140      1.09724      .   S
    C261   N303      1.48430      .   S
    C260   H139      1.09723      .   S
    C260   N302      1.48430      .   S
    C209   H62       1.09475      .   S
    C209   N290      1.48363      .   S
    C210   H63       1.09475      .   S
    C210   N291      1.48361      .   S
    S269   C202      1.80773      .   S
    S269   O325      1.49666  1_565   S
    S268   C201      1.80735      .   S
    S268   O324      1.49623  1_565   S
    H45    C202      1.09945      .   S
    H44    C201      1.09945      .   S
    H51    C204      1.09813      .   S
    H50    C203      1.09813      .   S
    N303   C240      1.48360      .   S
    N302   C239      1.48360      .   S
    N290   C239      1.48566      .   S
    N291   C240      1.48568      .   S
    C202   C204      1.52556      .   S
    C202   H47       1.09865      .   S
    C201   C203      1.52556      .   S
    C201   H46       1.09905      .   S
    C203   H48       1.10720      .   S
    C203   N288      1.48798      .   S
    C204   H49       1.10721      .   S
    C204   N289      1.48797      .   S
    C240   H138      1.09472      .   S
    C240   H136      1.09751      .   S
    C239   H137      1.09473      .   S
    C239   H135      1.09751      .   S
    H22    C87       1.09939      .   S
    H23    C192      1.09939      .   S
    H27    C194      1.10733      .   S
    H26    C193      1.10680      .   S
    H58    C207      1.03960  1_545   S
    H59    C208      1.03960  1_545   S
    H33    C196      1.10986      .   S
    H32    C195      1.10986      .   S
    H25    C192      1.09956      .   S
    H24    C87       1.09896      .   S
    C87    C193      1.52618      .   S
    C87    S267      1.80738  1_455   S
    C192   C194      1.52618      .   S
    C192   S266      1.80748      .   S
    N288   C207      1.48481      .   S
    N288   C205      1.48099      .   S
    N289   C208      1.48480      .   S
    N289   C206      1.48100      .   S
    C193   H28       1.09890      .   S
    C193   N284      1.48692      .   S
    C194   H29       1.09890      .   S
    C194   N285      1.48691      .   S
    H34    C197      1.10991      .   S
    H35    C198      1.10990      .   S
    C208   H57       1.10989      .   S
    C207   H56       1.10989      .   S
    H31    C196      1.09681      .   S
    H30    C195      1.09673      .   S
    C196   N285      1.48077      .   S
    C195   N284      1.48078      .   S
    O320   S266      1.47444      .   S
    O321   S267      1.47444      .   S
    N284   C197      1.48482      .   S
    N285   C198      1.48484      .   S
    H53    C206      1.09685      .   S
    H52    C205      1.09680      .   S
