# CIF file generated by openbabel 2.4.90, see http://openbabel.sf.net
data_I
_chemical_name_common ''
_cell_length_a 18.077
_cell_length_b 18.099
_cell_length_c 19.129
_cell_angle_alpha 89.93
_cell_angle_beta 90.006
_cell_angle_gamma 120.048
_space_group_name_H-M_alt 'P 1'
_space_group_name_Hall 'P 1'
loop_
    _symmetry_equiv_pos_as_xyz
    x,y,z
loop_
    _atom_site_label
    _atom_site_type_symbol
    _atom_site_fract_x
    _atom_site_fract_y
    _atom_site_fract_z
    _atom_site_occupancy
    N0      N    0.56007   0.97832   0.96567   1.000
    N1      N    0.58167   0.02188   0.03430   1.000
    O2      O    0.57357   0.00554   0.00856   1.000
    N3      N    0.03815   0.37286   0.52270   1.000
    N4      N    0.96129   0.33436   0.47763   1.000
    O5      O    0.99011   0.34880   0.49453   1.000
    N6      N    0.02155   0.58244   0.96559   1.000
    N7      N    0.97784   0.56067   0.03429   1.000
    O8      O    0.99423   0.56883   0.00853   1.000
    N9      N    0.33424   0.96140   0.52260   1.000
    N10     N    0.37263   0.03835   0.47756   1.000
    O11     O    0.35823   0.00950   0.49445   1.000
    N12     N    0.43914   0.41775   0.03436   1.000
    N13     N    0.41739   0.43964   0.96564   1.000
    O14     O    0.42554   0.43143   0.99141   1.000
    N15     N    0.62711   0.66573   0.52210   1.000
    N16     N    0.66545   0.62712   0.47722   1.000
    O17     O    0.65107   0.64160   0.49405   1.000
    Zr18    Zr   0.33341   0.66686   0.73418   1.000
    O19     O    0.36275   0.59235   0.84389   1.000
    O20     O    0.36886   0.54147   0.79128   1.000
    O21     O    0.17217   0.63091   0.79120   1.000
    O22     O    0.43544   0.63624   0.65224   1.000
    O23     O    0.20021   0.56444   0.65262   1.000
    O24     O    0.27377   0.75524   0.64762   1.000
    O25     O    0.22938   0.63760   0.84393   1.000
    O26     O    0.24452   0.51857   0.64786   1.000
    O27     O    0.45896   0.82790   0.79133   1.000
    O28     O    0.48205   0.72645   0.64767   1.000
    O29     O    0.36406   0.79984   0.65268   1.000
    O30     O    0.40771   0.77079   0.84391   1.000
    Zr31    Zr   0.66629   0.33322   0.26578   1.000
    O32     O    0.72594   0.48137   0.35231   1.000
    O33     O    0.63065   0.17225   0.20869   1.000
    O34     O    0.56414   0.20034   0.34746   1.000
    O35     O    0.79925   0.36390   0.34750   1.000
    O36     O    0.54093   0.36900   0.20871   1.000
    O37     O    0.63566   0.43560   0.34729   1.000
    O38     O    0.77023   0.40783   0.15530   1.000
    O39     O    0.63668   0.22930   0.15528   1.000
    O40     O    0.75521   0.27369   0.35220   1.000
    O41     O    0.51798   0.24438   0.35224   1.000
    O42     O    0.82731   0.45881   0.20865   1.000
    O43     O    0.59168   0.36260   0.15529   1.000
loop_
    _geom_bond_atom_site_label_1
    _geom_bond_atom_site_label_2
    _geom_bond_distance
    _geom_bond_site_symmetry_2
    _ccdc_geom_bond_type
    N1     O2        0.55517      .   S
    N0     O2        0.92528  1_566   S
    N4     O5        0.55508      .   S
    N3     O5        0.92513  1_455   S
    N7     O8        0.55541      .   S
    N6     O8        0.92568  1_456   S
    N10    O11       0.55529      .   S
    N9     O11       0.92548  1_565   S
    N13    O14       0.55549      .   S
    N12    O14       0.92582  1_554   S
    N16    O17       0.55530      .   S
    N15    O17       0.92550      .   S
    Zr18   O19       2.68597      .   S
    N13    O19       4.09333      .   S
    Zr18   O20       2.86440      .   S
    N13    O20       4.11030      .   S
    Zr18   O21       2.86501      .   S
    N6     O21       4.11269      .   S
    Zr18   O22       2.68184      .   S
    N15    O22       4.07839      .   S
    Zr18   O23       2.68402      .   S
    N3     O23       4.07782      .   S
    Zr18   O24       2.86033      .   S
    N9     O24       4.09046      .   S
    Zr18   O25       2.68796      .   S
    N6     O25       4.09488      .   S
    Zr18   O26       2.86413      .   S
    N3     O26       4.09449      .   S
    Zr18   O27       2.86777      .   S
    N0     O27       4.11236      .   S
    Zr18   O28       2.86624      .   S
    N15    O28       4.09234      .   S
    Zr18   O29       2.68053      .   S
    N9     O29       4.07346      .   S
    Zr18   O30       2.68837      .   S
    N0     O30       4.09616      .   S
    Zr31   O32       2.86483      .   S
    N16    O32       4.09488      .   S
    Zr31   O33       2.86758      .   S
    N1     O33       4.11435      .   S
    Zr31   O34       2.67943      .   S
    N10    O34       4.07350      .   S
    Zr31   O35       2.68227      .   S
    N4     O35       4.07740      .   S
    Zr31   O36       2.86598      .   S
    N12    O36       4.11152      .   S
    Zr31   O37       2.68446      .   S
    N16    O37       4.07839      .   S
    Zr31   O38       2.69680      .   S
    N7     O38       4.08470      .   S
    Zr31   O39       2.70060      .   S
    N1     O39       4.08902      .   S
    Zr31   O40       2.86485      .   S
    N4     O40       4.09248      .   S
    Zr31   O41       2.86105      .   S
    N10    O41       4.08940      .   S
    Zr31   O42       2.86384      .   S
    N7     O42       4.10996      .   S
    Zr31   O43       2.69884      .   S
    N12    O43       4.08660      .   S
