# CIF file generated by openbabel 2.4.90, see http://openbabel.sf.net
data_I
_chemical_name_common ''
_cell_length_a 13.563
_cell_length_b 13.894
_cell_length_c 16.09
_cell_angle_alpha 92.116
_cell_angle_beta 97.132
_cell_angle_gamma 91.853
_space_group_name_H-M_alt 'P 1'
_space_group_name_Hall 'P 1'
loop_
    _symmetry_equiv_pos_as_xyz
    x,y,z
loop_
    _atom_site_label
    _atom_site_type_symbol
    _atom_site_fract_x
    _atom_site_fract_y
    _atom_site_fract_z
    _atom_site_occupancy
    Cd0     Cd   0.24885   0.75871   0.23945   1.000
    Cd1     Cd   0.34516   0.66913   0.74563   1.000
    Cd2     Cd   0.43620   0.55471   0.25701   1.000
    Cd3     Cd   0.75116   0.24124   0.75704   1.000
    Cd4     Cd   0.65466   0.33047   0.25081   1.000
    Cd5     Cd   0.56388   0.44526   0.73950   1.000
    C6      C    0.35142   0.45197   0.78966   1.000
    C7      C    0.94201   0.30473   0.75924   1.000
    C8      C    0.32961   0.61293   0.10440   1.000
    C9      C    0.60913   0.33316   0.60274   1.000
    C10     C    0.43281   0.34980   0.29425   1.000
    C11     C    0.31259   0.94476   0.24725   1.000
    C12     C    0.64864   0.54784   0.20690   1.000
    C13     C    0.05802   0.69520   0.23733   1.000
    C14     C    0.67046   0.38709   0.89213   1.000
    C15     C    0.39090   0.66684   0.39374   1.000
    C16     C    0.56717   0.65017   0.70226   1.000
    C17     C    0.68744   0.05516   0.74931   1.000
    O18     O    0.37614   0.53892   0.81615   1.000
    O19     O    0.41225   0.39182   0.76772   1.000
    O20     O    0.35401   0.88610   0.29913   1.000
    O21     O    0.24494   0.91906   0.18796   1.000
    O22     O    0.52447   0.36699   0.60836   1.000
    O23     O    0.68353   0.34996   0.65966   1.000
    O24     O    0.35374   0.52856   0.12465   1.000
    O25     O    0.35268   0.68780   0.15257   1.000
    O26     O    0.91186   0.24180   0.70169   1.000
    O27     O    0.88692   0.33754   0.81225   1.000
    O28     O    0.52491   0.37893   0.30913   1.000
    O29     O    0.36336   0.40822   0.28503   1.000
    O30     O    0.62388   0.46089   0.18043   1.000
    O31     O    0.58783   0.60807   0.22875   1.000
    O32     O    0.64600   0.11385   0.69745   1.000
    O33     O    0.75514   0.08082   0.80857   1.000
    O34     O    0.47557   0.63303   0.38809   1.000
    O35     O    0.31649   0.65004   0.33683   1.000
    O36     O    0.64632   0.47146   0.87189   1.000
    O37     O    0.64740   0.31223   0.84394   1.000
    O38     O    0.08815   0.75817   0.29486   1.000
    O39     O    0.11308   0.66246   0.18428   1.000
    O40     O    0.47507   0.62104   0.68735   1.000
    O41     O    0.63663   0.59176   0.71150   1.000
loop_
    _geom_bond_atom_site_label_1
    _geom_bond_atom_site_label_2
    _geom_bond_distance
    _geom_bond_site_symmetry_2
    _ccdc_geom_bond_type
    C8     O24       1.27050      .   S
    C8     O25       1.28064      .   S
    O24    Cd2       2.28980      .   S
    O25    Cd0       2.32062      .   S
    O30    C12       1.28602      .   S
    O30    Cd4       2.19614      .   S
    O39    C13       1.28256      .   S
    O39    Cd0       2.30538      .   S
    O21    Cd0       2.40534      .   S
    O21    C11       1.27108      .   S
    C12    O31       1.26453      .   S
    O31    Cd2       2.26816      .   S
    C13    O38       1.26983      .   S
    Cd0    O38       2.45509      .   S
    Cd0    O20       2.33671      .   S
    Cd0    O35       2.34179      .   S
    C11    O20       1.28078      .   S
    Cd4    O28       2.20704      .   S
    Cd2    O29       2.31730      .   S
    Cd2    O34       2.33039      .   S
    O29    C10       1.26173      .   S
    C10    O28       1.29132      .   S
    O35    C15       1.28488      .   S
    O34    C15       1.26697      .   S
    C9     O22       1.26694      .   S
    C9     O23       1.28492      .   S
    O22    Cd5       2.33086      .   S
    O23    Cd3       2.34214      .   S
    O40    C16       1.29124      .   S
    O40    Cd1       2.20702      .   S
    O32    C17       1.28086      .   S
    O32    Cd3       2.33622      .   S
    O26    Cd3       2.45469      .   S
    O26    C7        1.26983      .   S
    C16    O41       1.26176      .   S
    O41    Cd5       2.31692      .   S
    Cd5    O19       2.26831      .   S
    Cd5    O36       2.29032      .   S
    Cd1    O18       2.19533      .   S
    C17    O33       1.27100      .   S
    Cd3    O33       2.40651      .   S
    Cd3    O27       2.30576      .   S
    Cd3    O37       2.32040      .   S
    C7     O27       1.28254      .   S
    O19    C6        1.26443      .   S
    C6     O18       1.28603      .   S
    O37    C14       1.28068      .   S
    O36    C14       1.27047      .   S
