# CIF file generated by openbabel 2.4.90, see http://openbabel.sf.net
data_I
_chemical_name_common ''
_cell_length_a 18.402
_cell_length_b 18.418
_cell_length_c 18.412
_cell_angle_alpha 60.334
_cell_angle_beta 60.264
_cell_angle_gamma 60.268
_space_group_name_H-M_alt 'P 1'
_space_group_name_Hall 'P 1'
loop_
    _symmetry_equiv_pos_as_xyz
    x,y,z
loop_
    _atom_site_label
    _atom_site_type_symbol
    _atom_site_fract_x
    _atom_site_fract_y
    _atom_site_fract_z
    _atom_site_occupancy
    C0      C    0.88045   0.70690   0.20682   1.000
    C1      C    0.29314   0.11983   0.79320   1.000
    C2      C    0.11956   0.29309   0.79319   1.000
    C3      C    0.70687   0.88017   0.20681   1.000
    C4      C    0.70678   0.70681   0.38023   1.000
    C5      C    0.70592   0.70628   0.20627   1.000
    C6      C    0.29322   0.29318   0.61978   1.000
    C7      C    0.29409   0.29371   0.79370   1.000
    C8      C    0.55029   0.06790   0.33585   1.000
    C9      C    0.54621   0.83587   0.56787   1.000
    C10     C    0.54974   0.06732   0.04822   1.000
    C11     C    0.54657   0.83592   0.04779   1.000
    C12     C    0.06832   0.83587   0.04800   1.000
    C13     C    0.93164   0.44988   0.66414   1.000
    C14     C    0.16439   0.45357   0.43219   1.000
    C15     C    0.93238   0.45038   0.95200   1.000
    C16     C    0.16433   0.45314   0.95206   1.000
    C17     C    0.16438   0.93214   0.95126   1.000
    C18     C    0.44972   0.93209   0.66416   1.000
    C19     C    0.45380   0.16412   0.43214   1.000
    C20     C    0.45026   0.93268   0.95179   1.000
    C21     C    0.45344   0.16408   0.95222   1.000
    C22     C    0.93169   0.16412   0.95160   1.000
    C23     C    0.06836   0.55012   0.33586   1.000
    C24     C    0.83562   0.54642   0.56782   1.000
    C25     C    0.06763   0.54961   0.04801   1.000
    C26     C    0.83567   0.54685   0.04794   1.000
    C27     C    0.83562   0.06785   0.04875   1.000
    C28     C    0.54725   0.54740   0.33585   1.000
    C29     C    0.54877   0.54888   0.56762   1.000
    C30     C    0.45275   0.45259   0.66416   1.000
    C31     C    0.45123   0.45112   0.43239   1.000
    C32     C    0.61132   0.88907   0.38903   1.000
    C33     C    0.55376   0.94638   0.44636   1.000
    C34     C    0.52786   0.03894   0.40776   1.000
    C35     C    0.52557   0.90777   0.53893   1.000
    C36     C    0.61104   0.88853   0.11086   1.000
    C37     C    0.55373   0.94605   0.05353   1.000
    C38     C    0.52755   0.03860   0.02670   1.000
    C39     C    0.52578   0.90779   0.02650   1.000
    C40     C    0.03916   0.90777   0.02680   1.000
    C41     C    0.11078   0.38860   0.61104   1.000
    C42     C    0.05352   0.44615   0.55369   1.000
    C43     C    0.96082   0.47224   0.59224   1.000
    C44     C    0.09237   0.47432   0.46112   1.000
    C45     C    0.11144   0.38877   0.88919   1.000
    C46     C    0.05391   0.44617   0.94652   1.000
    C47     C    0.96123   0.47252   0.97341   1.000
    C48     C    0.09234   0.47406   0.97342   1.000
    C49     C    0.09236   0.96108   0.97302   1.000
    C50     C    0.38869   0.11092   0.61098   1.000
    C51     C    0.44625   0.05361   0.55365   1.000
    C52     C    0.47215   0.96105   0.59225   1.000
    C53     C    0.47444   0.09222   0.46108   1.000
    C54     C    0.38897   0.11147   0.88915   1.000
    C55     C    0.44628   0.05395   0.94648   1.000
    C56     C    0.47245   0.96139   0.97329   1.000
    C57     C    0.47422   0.09220   0.97351   1.000
    C58     C    0.96084   0.09223   0.97321   1.000
    C59     C    0.88923   0.61140   0.38897   1.000
    C60     C    0.94648   0.55384   0.44632   1.000
    C61     C    0.03918   0.52775   0.40777   1.000
    C62     C    0.90764   0.52567   0.53889   1.000
    C63     C    0.88857   0.61122   0.11082   1.000
    C64     C    0.94610   0.55383   0.05349   1.000
    C65     C    0.03877   0.52747   0.02660   1.000
    C66     C    0.90767   0.52594   0.02659   1.000
    C67     C    0.90764   0.03891   0.02699   1.000
    C68     C    0.61080   0.61107   0.38873   1.000
    C69     C    0.55354   0.55371   0.44618   1.000
    C70     C    0.52620   0.52625   0.40776   1.000
    C71     C    0.52704   0.52706   0.53877   1.000
    C72     C    0.88920   0.88903   0.11187   1.000
    C73     C    0.94647   0.94634   0.05417   1.000
    C74     C    0.38921   0.38892   0.61128   1.000
    C75     C    0.44647   0.44629   0.55383   1.000
    C76     C    0.47381   0.47375   0.59225   1.000
    C77     C    0.47297   0.47293   0.46124   1.000
    C78     C    0.11080   0.11096   0.88813   1.000
    C79     C    0.05354   0.05365   0.94584   1.000
    C80     C    0.63343   0.80541   0.42850   1.000
    C81     C    0.63348   0.92855   0.30534   1.000
    C82     C    0.63247   0.80485   0.13297   1.000
    C83     C    0.63385   0.92795   0.13290   1.000
    C84     C    0.92880   0.80537   0.13417   1.000
    C85     C    0.19459   0.36649   0.57155   1.000
    C86     C    0.07115   0.36633   0.69474   1.000
    C87     C    0.19525   0.36714   0.86713   1.000
    C88     C    0.07189   0.36610   0.86710   1.000
    C89     C    0.19461   0.07148   0.86591   1.000
    C90     C    0.36657   0.19458   0.57151   1.000
    C91     C    0.36652   0.07145   0.69467   1.000
    C92     C    0.36754   0.19514   0.86704   1.000
    C93     C    0.36616   0.07204   0.86711   1.000
    C94     C    0.07120   0.19463   0.86584   1.000
    C95     C    0.80541   0.63350   0.42846   1.000
    C96     C    0.92886   0.63366   0.30527   1.000
    C97     C    0.80476   0.63285   0.13288   1.000
    C98     C    0.92812   0.63389   0.13286   1.000
    C99     C    0.80540   0.92852   0.13410   1.000
    C100    C    0.74995   0.74990   0.24991   1.000
    C101    C    0.63324   0.63337   0.42825   1.000
    C102    C    0.63249   0.63301   0.30501   1.000
    C103    C    0.25006   0.25009   0.75010   1.000
    C104    C    0.36676   0.36662   0.57176   1.000
    C105    C    0.36751   0.36698   0.69500   1.000
    O106    O    0.53617   0.87185   0.03714   1.000
    O107    O    0.53975   0.92692   0.04002   1.000
    O108    O    0.49912   0.93459   0.99989   1.000
    O109    O    0.87167   0.53640   0.03727   1.000
    O110    O    0.92688   0.53988   0.04004   1.000
    O111    O    0.93445   0.49923   0.00000   1.000
    O112    O    0.05320   0.53854   0.03730   1.000
    O113    O    0.99244   0.54065   0.04004   1.000
    O114    O    0.06556   0.50076   0.00001   1.000
    O115    O    0.53865   0.05296   0.03746   1.000
    O116    O    0.54064   0.99232   0.04012   1.000
    O117    O    0.50089   0.06540   0.00011   1.000
    O118    O    0.05374   0.87182   0.03740   1.000
    O119    O    0.99282   0.92705   0.04049   1.000
    O120    O    0.06576   0.93442   0.99991   1.000
    O121    O    0.87163   0.05338   0.03787   1.000
    O122    O    0.92706   0.99263   0.04058   1.000
    O123    O    0.93424   0.06557   0.00010   1.000
    O124    O    0.91733   0.58252   0.08215   1.000
    O125    O    0.58238   0.91729   0.08220   1.000
    O126    O    0.91784   0.91769   0.08302   1.000
    O127    O    0.90834   0.62255   0.12184   1.000
    O128    O    0.84666   0.62203   0.12185   1.000
    O129    O    0.62244   0.90824   0.12188   1.000
    O130    O    0.62175   0.84669   0.12191   1.000
    O131    O    0.84730   0.90877   0.12298   1.000
    O132    O    0.90900   0.84720   0.12302   1.000
    O133    O    0.90428   0.67040   0.16984   1.000
    O134    O    0.75534   0.66957   0.16958   1.000
    O135    O    0.67036   0.90406   0.16986   1.000
    O136    O    0.66919   0.75557   0.16962   1.000
    O137    O    0.75613   0.90434   0.17045   1.000
    O138    O    0.90463   0.75613   0.17049   1.000
    O139    O    0.66921   0.66965   0.25564   1.000
    O140    O    0.72841   0.81503   0.22836   1.000
    O141    O    0.67018   0.90436   0.25607   1.000
    O142    O    0.90465   0.67028   0.25604   1.000
    O143    O    0.72837   0.72835   0.31507   1.000
    O144    O    0.62165   0.62204   0.34687   1.000
    O145    O    0.90904   0.62253   0.34712   1.000
    O146    O    0.62240   0.90881   0.34718   1.000
    O147    O    0.53672   0.53682   0.37181   1.000
    O148    O    0.53907   0.05342   0.37181   1.000
    O149    O    0.05377   0.53893   0.37182   1.000
    O150    O    0.67001   0.67009   0.40424   1.000
    O151    O    0.75610   0.67015   0.40435   1.000
    O152    O    0.67011   0.75611   0.40436   1.000
    O153    O    0.62202   0.62222   0.40849   1.000
    O154    O    0.58217   0.58239   0.41746   1.000
    O155    O    0.84732   0.62245   0.40871   1.000
    O156    O    0.91786   0.58262   0.41764   1.000
    O157    O    0.62237   0.84724   0.40876   1.000
    O158    O    0.58254   0.91773   0.41769   1.000
    O159    O    0.54081   0.99266   0.42706   1.000
    O160    O    0.50115   0.06558   0.43442   1.000
    O161    O    0.53987   0.53998   0.42697   1.000
    O162    O    0.49958   0.49959   0.43450   1.000
    O163    O    0.99283   0.54079   0.42705   1.000
    O164    O    0.06578   0.50104   0.43444   1.000
    O165    O    0.46412   0.12817   0.44661   1.000
    O166    O    0.12838   0.46395   0.44666   1.000
    O167    O    0.46210   0.46203   0.44682   1.000
    O168    O    0.54029   0.54038   0.49247   1.000
    O169    O    0.92706   0.53975   0.49261   1.000
    O170    O    0.53966   0.92708   0.49264   1.000
    O171    O    0.46034   0.07292   0.50736   1.000
    O172    O    0.07295   0.46024   0.50740   1.000
    O173    O    0.45972   0.45961   0.50753   1.000
    O174    O    0.53791   0.53797   0.55319   1.000
    O175    O    0.50042   0.50040   0.56551   1.000
    O176    O    0.87163   0.53604   0.55336   1.000
    O177    O    0.93423   0.49896   0.56556   1.000
    O178    O    0.53589   0.87182   0.55340   1.000
    O179    O    0.49886   0.93441   0.56559   1.000
    O180    O    0.45920   0.00733   0.57295   1.000
    O181    O    0.41747   0.08227   0.58232   1.000
    O182    O    0.00717   0.45920   0.57297   1.000
    O183    O    0.08215   0.41737   0.58236   1.000
    O184    O    0.46014   0.46002   0.57304   1.000
    O185    O    0.41784   0.41760   0.58256   1.000
    O186    O    0.37763   0.15275   0.59124   1.000
    O187    O    0.32990   0.24388   0.59564   1.000
    O188    O    0.15269   0.37754   0.59130   1.000
    O189    O    0.24391   0.32984   0.59566   1.000
    O190    O    0.37798   0.37777   0.59152   1.000
    O191    O    0.32999   0.32990   0.59577   1.000
    O192    O    0.94623   0.46106   0.62819   1.000
    O193    O    0.46093   0.94657   0.62821   1.000
    O194    O    0.46328   0.46317   0.62821   1.000
    O195    O    0.37761   0.09118   0.65282   1.000
    O196    O    0.09096   0.37746   0.65289   1.000
    O197    O    0.37836   0.37795   0.65314   1.000
    O198    O    0.27164   0.27164   0.68494   1.000
    O199    O    0.32983   0.09564   0.74394   1.000
    O200    O    0.09535   0.32971   0.74397   1.000
    O201    O    0.33080   0.33035   0.74435   1.000
    O202    O    0.27160   0.18496   0.77165   1.000
    O203    O    0.09538   0.24386   0.82951   1.000
    O204    O    0.09572   0.32960   0.83014   1.000
    O205    O    0.24387   0.09565   0.82955   1.000
    O206    O    0.32965   0.09593   0.83016   1.000
    O207    O    0.33081   0.24442   0.83037   1.000
    O208    O    0.24467   0.33043   0.83041   1.000
    O209    O    0.09100   0.15279   0.87699   1.000
    O210    O    0.15271   0.09122   0.87702   1.000
    O211    O    0.37825   0.15330   0.87810   1.000
    O212    O    0.09166   0.37744   0.87815   1.000
    O213    O    0.37756   0.09176   0.87813   1.000
    O214    O    0.15334   0.37796   0.87816   1.000
    O215    O    0.08217   0.08230   0.91699   1.000
    O216    O    0.41762   0.08271   0.91782   1.000
    O217    O    0.08267   0.41747   0.91785   1.000
    O218    O    0.07295   0.00737   0.95943   1.000
    O219    O    0.00719   0.07294   0.95952   1.000
    O220    O    0.45937   0.00767   0.95988   1.000
    O221    O    0.46025   0.07307   0.95999   1.000
    O222    O    0.00757   0.45935   0.95997   1.000
    O223    O    0.07312   0.46011   0.95997   1.000
    O224    O    0.12837   0.94661   0.96214   1.000
    O225    O    0.94627   0.12817   0.96240   1.000
    O226    O    0.46136   0.94703   0.96254   1.000
    O227    O    0.94681   0.46145   0.96271   1.000
    O228    O    0.12834   0.46360   0.96274   1.000
    O229    O    0.46383   0.12814   0.96286   1.000
    O230    O    0.81520   0.72840   0.22836   1.000
    O231    O    0.72793   0.72809   0.22809   1.000
    O232    O    0.18481   0.27159   0.77164   1.000
    O233    O    0.27207   0.27190   0.77190   1.000
loop_
    _geom_bond_atom_site_label_1
    _geom_bond_atom_site_label_2
    _geom_bond_distance
    _geom_bond_site_symmetry_2
    _ccdc_geom_bond_type
    C39    O106      0.54432      .   S
    C11    O106      0.54432      .   S
    C39    O107      0.70160      .   S
    C37    O107      0.70160      .   S
    C39    O108      0.69517  1_554   S
    C56    O108      0.69517      .   S
    C66    O109      0.54432      .   S
    C26    O109      0.54432      .   S
    C66    O110      0.70159      .   S
    C64    O110      0.70159      .   S
    C66    O111      0.69506      .   S
    C47    O111      0.69506  1_556   S
    C65    O112      0.54433      .   S
    C25    O112      0.54433      .   S
    C65    O113      0.70149  1_455   S
    C64    O113      0.70149      .   S
    C65    O114      0.69506      .   S
    C48    O114      0.69506  1_556   S
    C38    O115      0.54442      .   S
    C10    O115      0.54442      .   S
    C38    O116      0.70178  1_545   S
    C37    O116      0.70178      .   S
    C38    O117      0.69504      .   S
    C57    O117      0.69504  1_556   S
    C40    O118      0.54429      .   S
    C12    O118      0.54429      .   S
    C40    O119      0.70141  1_455   S
    C73    O119      0.70141      .   S
    C40    O120      0.69511  1_554   S
    C49    O120      0.69511      .   S
    C67    O121      0.54430      .   S
    C27    O121      0.54430      .   S
    C67    O122      0.70168  1_545   S
    C73    O122      0.70168      .   S
    C67    O123      0.69511      .   S
    C58    O123      0.69511  1_556   S
    C64    O124      0.74806      .   S
    C63    O124      0.74806      .   S
    C37    O125      0.74800      .   S
    C36    O125      0.74800      .   S
    C73    O126      0.74768      .   S
    C72    O126      0.74768      .   S
    C63    O127      0.63852      .   S
    C98    O127      0.63852      .   S
    C63    O128      0.63865      .   S
    C97    O128      0.63865      .   S
    C36    O129      0.63855      .   S
    C83    O129      0.63855      .   S
    C36    O130      0.63867      .   S
    C82    O130      0.63867      .   S
    C72    O131      0.63851      .   S
    C99    O131      0.63851      .   S
    C72    O132      0.63854      .   S
    C84    O132      0.63854      .   S
    C98    O133      0.98612      .   S
    C0     O133      0.98612      .   S
    C97    O134      0.98670      .   S
    C5     O134      0.98670      .   S
    C83    O135      0.98585      .   S
    C3     O135      0.98585      .   S
    C82    O136      0.98673      .   S
    C5     O136      0.98673      .   S
    C99    O137      0.98565      .   S
    C3     O137      0.98565      .   S
    C84    O138      0.98597      .   S
    C0     O138      0.98597      .   S
    C5     O139      0.98682      .   S
    C102   O139      0.98682      .   S
    C3     O140      0.98330      .   S
    C100   O140      0.98330      .   S
    C3     O141      0.98552      .   S
    C81    O141      0.98552      .   S
    C0     O142      0.98597      .   S
    C96    O142      0.98597      .   S
    C100   O143      0.98333      .   S
    C4     O143      0.98333      .   S
    C102   O144      0.63870      .   S
    C68    O144      0.63870      .   S
    C96    O145      0.63858      .   S
    C59    O145      0.63858      .   S
    C81    O146      0.63856      .   S
    C32    O146      0.63856      .   S
    C28    O147      0.54431      .   S
    C70    O147      0.54431      .   S
    C8     O148      0.54430      .   S
    C34    O148      0.54430      .   S
    C23    O149      0.54435      .   S
    C61    O149      0.54435      .   S
    C4     O150      0.98583      .   S
    C101   O150      0.98583      .   S
    C4     O151      0.98579      .   S
    C95    O151      0.98579      .   S
    C4     O152      0.98565      .   S
    C80    O152      0.98565      .   S
    C68    O153      0.63852      .   S
    C101   O153      0.63852      .   S
    C68    O154      0.74800      .   S
    C69    O154      0.74800      .   S
    C59    O155      0.63855      .   S
    C95    O155      0.63855      .   S
    C59    O156      0.74777      .   S
    C60    O156      0.74777      .   S
    C32    O157      0.63854      .   S
    C80    O157      0.63854      .   S
    C32    O158      0.74751      .   S
    C33    O158      0.74751      .   S
    C34    O159      0.70166  1_545   S
    C33    O159      0.70166      .   S
    C34    O160      0.69509      .   S
    C53    O160      0.69509      .   S
    C70    O161      0.70160      .   S
    C69    O161      0.70160      .   S
    C70    O162      0.69521      .   S
    C77    O162      0.69521      .   S
    C61    O163      0.70143  1_455   S
    C60    O163      0.70143      .   S
    C61    O164      0.69511      .   S
    C44    O164      0.69511      .   S
    C19    O165      0.54429      .   S
    C53    O165      0.54429      .   S
    C14    O166      0.54430      .   S
    C44    O166      0.54430      .   S
    C31    O167      0.54429      .   S
    C77    O167      0.54429      .   S
    C69    O168      0.70168      .   S
    C71    O168      0.70168      .   S
    C60    O169      0.70161      .   S
    C62    O169      0.70161      .   S
    C33    O170      0.70157      .   S
    C35    O170      0.70157      .   S
    C53    O171      0.70157      .   S
    C51    O171      0.70157      .   S
    C44    O172      0.70161      .   S
    C42    O172      0.70161      .   S
    C77    O173      0.70168      .   S
    C75    O173      0.70168      .   S
    C71    O174      0.54430      .   S
    C29    O174      0.54430      .   S
    C71    O175      0.69521      .   S
    C76    O175      0.69521      .   S
    C62    O176      0.54430      .   S
    C24    O176      0.54430      .   S
    C62    O177      0.69511      .   S
    C43    O177      0.69511      .   S
    C35    O178      0.54429      .   S
    C9     O178      0.54429      .   S
    C35    O179      0.69510      .   S
    C52    O179      0.69510      .   S
    C51    O180      0.70165      .   S
    C52    O180      0.70165  1_565   S
    C51    O181      0.74752      .   S
    C50    O181      0.74752      .   S
    C42    O182      0.70143      .   S
    C43    O182      0.70143  1_655   S
    C42    O183      0.74777      .   S
    C41    O183      0.74777      .   S
    C75    O184      0.70161      .   S
    C76    O184      0.70161      .   S
    C75    O185      0.74798      .   S
    C74    O185      0.74798      .   S
    C90    O186      0.63854      .   S
    C50    O186      0.63854      .   S
    C90    O187      0.98565      .   S
    C6     O187      0.98565      .   S
    C85    O188      0.63855      .   S
    C41    O188      0.63855      .   S
    C85    O189      0.98579      .   S
    C6     O189      0.98579      .   S
    C104   O190      0.63852      .   S
    C74    O190      0.63852      .   S
    C104   O191      0.98583      .   S
    C6     O191      0.98583      .   S
    C43    O192      0.54428      .   S
    C13    O192      0.54428      .   S
    C52    O193      0.54430      .   S
    C18    O193      0.54430      .   S
    C76    O194      0.54431      .   S
    C30    O194      0.54431      .   S
    C50    O195      0.63856      .   S
    C91    O195      0.63856      .   S
    C41    O196      0.63858      .   S
    C86    O196      0.63858      .   S
    C74    O197      0.63870      .   S
    C105   O197      0.63870      .   S
    C6     O198      0.98333      .   S
    C103   O198      0.98333      .   S
    C91    O199      0.98552      .   S
    C1     O199      0.98552      .   S
    C86    O200      0.98597      .   S
    C2     O200      0.98597      .   S
    C105   O201      0.98673      .   S
    C7     O201      0.98673      .   S
    C103   O202      0.98330      .   S
    C1     O202      0.98330      .   S
    C2     O203      0.98597      .   S
    C94    O203      0.98597      .   S
    C2     O204      0.98574      .   S
    C88    O204      0.98574      .   S
    C1     O205      0.98565      .   S
    C89    O205      0.98565      .   S
    C1     O206      0.98587      .   S
    C93    O206      0.98587      .   S
    C7     O207      0.98693      .   S
    C92    O207      0.98693      .   S
    C7     O208      0.98692      .   S
    C87    O208      0.98692      .   S
    C94    O209      0.63854      .   S
    C78    O209      0.63854      .   S
    C89    O210      0.63851      .   S
    C78    O210      0.63851      .   S
    C92    O211      0.63868      .   S
    C54    O211      0.63868      .   S
    C88    O212      0.63887      .   S
    C45    O212      0.63887      .   S
    C93    O213      0.63852      .   S
    C54    O213      0.63852      .   S
    C87    O214      0.63865      .   S
    C45    O214      0.63865      .   S
    C78    O215      0.74768      .   S
    C79    O215      0.74768      .   S
    C54    O216      0.74802      .   S
    C55    O216      0.74802      .   S
    C45    O217      0.74804      .   S
    C46    O217      0.74804      .   S
    C79    O218      0.70168      .   S
    C49    O218      0.70168  1_565   S
    C79    O219      0.70141      .   S
    C58    O219      0.70141  1_655   S
    C55    O220      0.70180      .   S
    C56    O220      0.70180  1_565   S
    C55    O221      0.70157      .   S
    C57    O221      0.70157      .   S
    C46    O222      0.70149      .   S
    C47    O222      0.70149  1_655   S
    C46    O223      0.70160      .   S
    C48    O223      0.70160      .   S
    C17    O224      0.54429      .   S
    C49    O224      0.54429      .   S
    C22    O225      0.54430      .   S
    C58    O225      0.54430      .   S
    C20    O226      0.54426      .   S
    C56    O226      0.54426      .   S
    C15    O227      0.54434      .   S
    C47    O227      0.54434      .   S
    C16    O228      0.54431      .   S
    C48    O228      0.54431      .   S
    C21    O229      0.54432      .   S
    C57    O229      0.54432      .   S
    C100   O230      0.98350      .   S
    C0     O230      0.98350      .   S
    C100   O231      0.98460      .   S
    C5     O231      0.98460      .   S
    C103   O232      0.98350      .   S
    C2     O232      0.98350      .   S
    C103   O233      0.98430      .   S
    C7     O233      0.98430      .   S
