# CIF file generated by openbabel 2.4.90, see http://openbabel.sf.net
data_I
_chemical_name_common ''
_cell_length_a 18.425
_cell_length_b 18.434
_cell_length_c 18.434
_cell_angle_alpha 60.137
_cell_angle_beta 60.147
_cell_angle_gamma 60.15
_space_group_name_H-M_alt 'P 1'
_space_group_name_Hall 'P 1'
loop_
    _symmetry_equiv_pos_as_xyz
    x,y,z
loop_
    _atom_site_label
    _atom_site_type_symbol
    _atom_site_fract_x
    _atom_site_fract_y
    _atom_site_fract_z
    _atom_site_occupancy
    Zn0     Zn   0.38048   0.20663   0.20663   1.000
    Zn1     Zn   0.20638   0.20635   0.20630   1.000
    Zn2     Zn   0.20659   0.20673   0.38047   1.000
    Zn3     Zn   0.61955   0.79337   0.79335   1.000
    Zn4     Zn   0.79343   0.61953   0.79325   1.000
    Zn5     Zn   0.79364   0.79364   0.79365   1.000
    Zn6     Zn   0.79343   0.79327   0.61950   1.000
    Zn7     Zn   0.20659   0.38046   0.20673   1.000
    C8      C    0.11099   0.38891   0.11094   1.000
    C9      C    0.38903   0.11120   0.38910   1.000
    C10     C    0.11099   0.11096   0.38890   1.000
    C11     C    0.38903   0.38910   0.11121   1.000
    C12     C    0.11113   0.38910   0.38910   1.000
    C13     C    0.38895   0.11095   0.11094   1.000
    C14     C    0.61107   0.88904   0.88904   1.000
    C15     C    0.88889   0.61090   0.61088   1.000
    C16     C    0.88904   0.88904   0.61108   1.000
    C17     C    0.61099   0.61090   0.88878   1.000
    C18     C    0.61099   0.88880   0.61088   1.000
    C19     C    0.88903   0.61109   0.88904   1.000
    O20     O    0.24997   0.25000   0.24999   1.000
    O21     O    0.75006   0.75000   0.74999   1.000
    O22     O    0.13326   0.42850   0.13310   1.000
    O23     O    0.42863   0.13343   0.30532   1.000
    O24     O    0.13290   0.30512   0.13290   1.000
    O25     O    0.30523   0.13329   0.42870   1.000
    O26     O    0.13289   0.13299   0.30511   1.000
    O27     O    0.42863   0.30532   0.13341   1.000
    O28     O    0.13324   0.13315   0.42850   1.000
    O29     O    0.30523   0.42870   0.13330   1.000
    O30     O    0.13327   0.30531   0.42870   1.000
    O31     O    0.42858   0.13317   0.13316   1.000
    O32     O    0.13326   0.42869   0.30531   1.000
    O33     O    0.30512   0.13293   0.13292   1.000
    O34     O    0.57144   0.86683   0.86682   1.000
    O35     O    0.86676   0.57131   0.69467   1.000
    O36     O    0.69491   0.86706   0.86706   1.000
    O37     O    0.86675   0.69468   0.57128   1.000
    O38     O    0.86713   0.86700   0.69487   1.000
    O39     O    0.69480   0.57130   0.86660   1.000
    O40     O    0.86678   0.86684   0.57148   1.000
    O41     O    0.57139   0.69467   0.86657   1.000
    O42     O    0.69480   0.86671   0.57128   1.000
    O43     O    0.86677   0.57149   0.86685   1.000
    O44     O    0.57139   0.86656   0.69460   1.000
    O45     O    0.86712   0.69488   0.86702   1.000
loop_
    _geom_bond_atom_site_label_1
    _geom_bond_atom_site_label_2
    _geom_bond_distance
    _geom_bond_site_symmetry_2
    _ccdc_geom_bond_type
    C8     O24       1.27743      .   S
    C8     O22       1.27668      .   S
    C13    O33       1.27732      .   S
    C13    O31       1.27718      .   S
    C11    O29       1.27711      .   S
    C11    O27       1.27713      .   S
    O24    Zn1       1.97359      .   S
    O33    Zn1       1.97317      .   S
    O22    Zn7       1.97225      .   S
    O31    Zn0       1.97238      .   S
    O29    Zn7       1.97151      .   S
    O27    Zn0       1.97184      .   S
    Zn1    O26       1.97343      .   S
    Zn0    O20       1.96708      .   S
    Zn0    O23       1.97186      .   S
    Zn7    O20       1.96723      .   S
    Zn7    O32       1.97153      .   S
    O26    C10       1.27726      .   S
    O32    C12       1.27722      .   S
    O23    C9        1.27711      .   S
    Zn2    O28       1.97172      .   S
    Zn2    O25       1.97146      .   S
    Zn2    O30       1.97162      .   S
    C10    O28       1.27709      .   S
    C9     O25       1.27711      .   S
    C12    O30       1.27717      .   S
    O42    C18       1.27711      .   S
    O42    Zn6       1.97135      .   S
    O37    C15       1.27717      .   S
    O37    Zn6       1.97152      .   S
    O40    C16       1.27709      .   S
    O40    Zn6       1.97175      .   S
    C15    O35       1.27722      .   S
    C18    O44       1.27626      .   S
    C16    O38       1.27726      .   S
    O44    Zn3       1.97274      .   S
    O35    Zn4       1.97153      .   S
    O38    Zn5       1.97329      .   S
    O21    Zn4       1.96723      .   S
    O21    Zn3       1.96709      .   S
    Zn4    O39       1.97150      .   S
    Zn4    O43       1.97182      .   S
    Zn3    O41       1.97184      .   S
    Zn3    O34       1.97239      .   S
    Zn5    O45       1.97328      .   S
    Zn5    O36       1.97349      .   S
    O41    C17       1.27713      .   S
    O39    C17       1.27713      .   S
    O34    C14       1.27715      .   S
    O43    C19       1.27708      .   S
    O45    C19       1.27729      .   S
    O36    C14       1.27732      .   S
    O20    Zn1       1.96804      .   S
    O20    Zn2       1.96736      .   S
    O21    Zn5       1.96757      .   S
    O21    Zn6       1.96751      .   S
