# CIF file generated by openbabel 2.4.90, see http://openbabel.sf.net
data_I
_chemical_name_common ''
_cell_length_a 23.679
_cell_length_b 14.304
_cell_length_c 17.532
_cell_angle_alpha 89.972
_cell_angle_beta 90.004
_cell_angle_gamma 90.006
_space_group_name_H-M_alt 'P 1'
_space_group_name_Hall 'P 1'
loop_
    _symmetry_equiv_pos_as_xyz
    x,y,z
loop_
    _atom_site_label
    _atom_site_type_symbol
    _atom_site_fract_x
    _atom_site_fract_y
    _atom_site_fract_z
    _atom_site_occupancy
    Cd0     Cd   0.50858   0.63821   0.01531   1.000
    Cd1     Cd   0.00854   0.36175   0.98471   1.000
    Cd2     Cd   0.50859   0.36176   0.98468   1.000
    Cd3     Cd   0.49102   0.86219   0.51571   1.000
    Cd4     Cd   0.99108   0.86228   0.51561   1.000
    Cd5     Cd   0.49096   0.13787   0.48434   1.000
    Cd6     Cd   0.99103   0.13776   0.48437   1.000
    Cd7     Cd   0.00854   0.63826   0.01526   1.000
    C8      C    0.00706   0.43089   0.13847   1.000
    C9      C    0.50696   0.43097   0.13846   1.000
    C10     C    0.49772   0.30379   0.40271   1.000
    C11     C    0.99768   0.30355   0.40263   1.000
    C12     C    0.00705   0.56911   0.86150   1.000
    C13     C    0.50701   0.56901   0.86156   1.000
    C14     C    0.49765   0.69659   0.59760   1.000
    C15     C    0.99768   0.69647   0.59733   1.000
    C16     C    0.49190   0.07060   0.63841   1.000
    C17     C    0.99277   0.07057   0.63840   1.000
    C18     C    0.00227   0.19574   0.90326   1.000
    C19     C    0.50224   0.19571   0.90321   1.000
    C20     C    0.49278   0.92943   0.36158   1.000
    C21     C    0.99277   0.92943   0.36154   1.000
    C22     C    0.00227   0.80426   0.09673   1.000
    C23     C    0.50228   0.80429   0.09677   1.000
    O24     O    0.00978   0.49772   0.09036   1.000
    O25     O    0.51089   0.49767   0.09037   1.000
    O26     O    0.00504   0.34543   0.11649   1.000
    O27     O    0.50387   0.34560   0.11640   1.000
    O28     O    0.50607   0.31285   0.47392   1.000
    O29     O    0.00000   0.31287   0.47404   1.000
    O30     O    0.48452   0.22486   0.37249   1.000
    O31     O    0.98543   0.22431   0.37220   1.000
    O32     O    0.00977   0.50228   0.90961   1.000
    O33     O    0.51090   0.50230   0.90965   1.000
    O34     O    0.00503   0.65457   0.88349   1.000
    O35     O    0.50389   0.65438   0.88354   1.000
    O36     O    0.50384   0.68715   0.52600   1.000
    O37     O    0.00000   0.68714   0.52590   1.000
    O38     O    0.48648   0.77607   0.62837   1.000
    O39     O    0.98544   0.77571   0.62776   1.000
    O40     O    0.48909   0.00400   0.59004   1.000
    O41     O    0.99012   0.00398   0.59004   1.000
    O42     O    0.49384   0.15610   0.61650   1.000
    O43     O    0.99481   0.15606   0.61658   1.000
    O44     O    0.99712   0.18526   0.97489   1.000
    O45     O    0.49608   0.18544   0.97472   1.000
    O46     O    0.01242   0.27583   0.87281   1.000
    O47     O    0.51344   0.27552   0.87292   1.000
    O48     O    0.49133   0.99609   0.40999   1.000
    O49     O    0.99013   0.99602   0.40994   1.000
    O50     O    0.49374   0.84387   0.38342   1.000
    O51     O    0.99482   0.84394   0.38341   1.000
    O52     O    0.99712   0.81474   0.02500   1.000
    O53     O    0.49609   0.81457   0.02527   1.000
    O54     O    0.01243   0.72418   0.12718   1.000
    O55     O    0.51346   0.72446   0.12705   1.000
loop_
    _geom_bond_atom_site_label_1
    _geom_bond_atom_site_label_2
    _geom_bond_distance
    _geom_bond_site_symmetry_2
    _ccdc_geom_bond_type
    Cd7    O52       2.54467  1_455   S
    Cd7    O24       2.40269      .   S
    Cd7    O54       2.31760      .   S
    Cd7    O34       2.32331  1_554   S
    Cd0    O53       2.54596      .   S
    Cd0    O25       2.40279      .   S
    Cd0    O55       2.31850      .   S
    Cd0    O35       2.32427  1_554   S
    O52    C22       1.27225  1_655   S
    O53    C23       1.27052      .   S
    O24    C8        1.27618      .   S
    O25    C9        1.27632      .   S
    C22    O54       1.28629      .   S
    C23    O55       1.28649      .   S
    O27    C9        1.28322      .   S
    O27    Cd2       2.32344  1_554   S
    O26    C8        1.28275      .   S
    O26    Cd1       2.32349  1_554   S
    C21    O51       1.28227      .   S
    C21    O49       1.27752      .   S
    C20    O50       1.28225      .   S
    C20    O48       1.27736      .   S
    O31    C11       1.28603      .   S
    O31    Cd6       2.32706      .   S
    O30    C10       1.28597      .   S
    O30    Cd5       2.32687      .   S
    O51    Cd4       2.33434      .   S
    O50    Cd3       2.33508      .   S
    C11    O29       1.26030  1_655   S
    C10    O28       1.27069      .   S
    O49    Cd6       2.41164  1_565   S
    O48    Cd5       2.41137  1_565   S
    O28    Cd5       2.53485      .   S
    O29    Cd6       2.52023  1_455   S
    Cd5    O42       2.33278      .   S
    Cd6    O43       2.33449      .   S
    Cd4    O37       2.52045  1_655   S
    Cd4    O41       2.41131  1_565   S
    Cd4    O39       2.32696      .   S
    Cd3    O36       2.52851      .   S
    Cd3    O40       2.41200  1_565   S
    Cd3    O38       2.32979      .   S
    O37    C15       1.26066  1_455   S
    O36    C14       1.27110      .   S
    O40    C16       1.27737      .   S
    O41    C17       1.27704      .   S
    C15    O39       1.28610      .   S
    C14    O38       1.28608      .   S
    O42    C16       1.28264      .   S
    O43    C17       1.28203      .   S
    C12    O34       1.28280      .   S
    C12    O32       1.27619      .   S
    C13    O35       1.28280      .   S
    C13    O33       1.27635      .   S
    O46    C18       1.28627      .   S
    O46    Cd1       2.31734      .   S
    O47    C19       1.28650      .   S
    O47    Cd2       2.31871      .   S
    C19    O45       1.27061      .   S
    C18    O44       1.27053  1_455   S
    O32    Cd1       2.40264      .   S
    O33    Cd2       2.40248      .   S
    O45    Cd2       2.54548      .   S
    O44    Cd1       2.54477  1_655   S
