# CIF file generated by openbabel 2.4.90, see http://openbabel.sf.net
data_I
_chemical_name_common ''
_cell_length_a 18.463
_cell_length_b 21.015
_cell_length_c 15.668
_cell_angle_alpha 94.029
_cell_angle_beta 89.958
_cell_angle_gamma 89.91
_space_group_name_H-M_alt 'P 1'
_space_group_name_Hall 'P 1'
loop_
    _symmetry_equiv_pos_as_xyz
    x,y,z
loop_
    _atom_site_label
    _atom_site_type_symbol
    _atom_site_fract_x
    _atom_site_fract_y
    _atom_site_fract_z
    _atom_site_occupancy
    Zr0     Zr   0.13118   0.03591   0.29640   1.000
    Zr1     Zr   0.13119   0.53568   0.29644   1.000
    Zr2     Zr   0.63120   0.03591   0.29640   1.000
    Zr3     Zr   0.63121   0.53568   0.29644   1.000
    Zr4     Zr   0.37830   0.18585   0.18184   1.000
    Zr5     Zr   0.37832   0.68590   0.18199   1.000
    Zr6     Zr   0.87832   0.18585   0.18184   1.000
    Zr7     Zr   0.87834   0.68590   0.18199   1.000
    Zr8     Zr   0.38116   0.46611   0.70646   1.000
    Zr9     Zr   0.38124   0.96609   0.70659   1.000
    Zr10    Zr   0.88117   0.46611   0.70646   1.000
    Zr11    Zr   0.88125   0.96609   0.70659   1.000
    Zr12    Zr   0.12832   0.31443   0.81839   1.000
    Zr13    Zr   0.12853   0.81423   0.81839   1.000
    Zr14    Zr   0.62834   0.31443   0.81839   1.000
    Zr15    Zr   0.62854   0.81423   0.81839   1.000
    Zr16    Zr   0.21856   0.27403   0.95262   1.000
    Zr17    Zr   0.21842   0.77448   0.95399   1.000
    Zr18    Zr   0.71857   0.27403   0.95262   1.000
    Zr19    Zr   0.71843   0.77448   0.95399   1.000
    Zr20    Zr   0.23140   0.01428   0.43489   1.000
    Zr21    Zr   0.23150   0.51418   0.43475   1.000
    Zr22    Zr   0.73142   0.01428   0.43489   1.000
    Zr23    Zr   0.73151   0.51418   0.43475   1.000
    Zr24    Zr   0.46864   0.22602   0.04768   1.000
    Zr25    Zr   0.46851   0.72562   0.04745   1.000
    Zr26    Zr   0.96865   0.22602   0.04768   1.000
    Zr27    Zr   0.96853   0.72562   0.04745   1.000
    Zr28    Zr   0.48118   0.48579   0.56646   1.000
    Zr29    Zr   0.48120   0.98585   0.56658   1.000
    Zr30    Zr   0.98120   0.48579   0.56646   1.000
    Zr31    Zr   0.98121   0.98585   0.56658   1.000
    Zr32    Zr   0.15289   0.28883   0.93340   1.000
    Zr33    Zr   0.15287   0.78884   0.93360   1.000
    Zr34    Zr   0.65290   0.28883   0.93340   1.000
    Zr35    Zr   0.65289   0.78884   0.93360   1.000
    Zr36    Zr   0.27224   0.27759   0.90440   1.000
    Zr37    Zr   0.27263   0.77806   0.90670   1.000
    Zr38    Zr   0.77225   0.27759   0.90440   1.000
    Zr39    Zr   0.77265   0.77806   0.90670   1.000
    Zr40    Zr   0.16569   0.02778   0.41324   1.000
    Zr41    Zr   0.16576   0.52762   0.41317   1.000
    Zr42    Zr   0.66570   0.02778   0.41324   1.000
    Zr43    Zr   0.66577   0.52762   0.41317   1.000
    Zr44    Zr   0.28406   0.00567   0.38528   1.000
    Zr45    Zr   0.28414   0.50560   0.38512   1.000
    Zr46    Zr   0.78407   0.00567   0.38528   1.000
    Zr47    Zr   0.78415   0.50560   0.38512   1.000
    Zr48    Zr   0.40298   0.21109   0.06668   1.000
    Zr49    Zr   0.40283   0.71098   0.06667   1.000
    Zr50    Zr   0.90299   0.21109   0.06668   1.000
    Zr51    Zr   0.90284   0.71098   0.06667   1.000
    Zr52    Zr   0.02220   0.22236   0.09590   1.000
    Zr53    Zr   0.02204   0.72219   0.09581   1.000
    Zr54    Zr   0.52221   0.22236   0.09590   1.000
    Zr55    Zr   0.52206   0.72219   0.09581   1.000
    Zr56    Zr   0.41567   0.47249   0.58905   1.000
    Zr57    Zr   0.41568   0.97256   0.58915   1.000
    Zr58    Zr   0.91568   0.47249   0.58905   1.000
    Zr59    Zr   0.91569   0.97256   0.58915   1.000
    Zr60    Zr   0.03425   0.49437   0.61526   1.000
    Zr61    Zr   0.03426   0.99438   0.61540   1.000
    Zr62    Zr   0.53426   0.49437   0.61526   1.000
    Zr63    Zr   0.53427   0.99438   0.61540   1.000
    O64     O    0.93568   0.71830   0.05706   1.000
    O65     O    0.99528   0.72391   0.07163   1.000
    O66     O    0.43567   0.71830   0.05706   1.000
    O67     O    0.49529   0.72391   0.07163   1.000
    O68     O    0.93582   0.21855   0.05718   1.000
    O69     O    0.99542   0.22419   0.07179   1.000
    O70     O    0.43581   0.21855   0.05718   1.000
    O71     O    0.49542   0.22419   0.07179   1.000
    O72     O    0.89059   0.69844   0.12433   1.000
    O73     O    0.39058   0.69844   0.12433   1.000
    O74     O    0.89065   0.19847   0.12426   1.000
    O75     O    0.39064   0.19847   0.12426   1.000
    O76     O    0.64845   0.03184   0.35482   1.000
    O77     O    0.14844   0.03184   0.35482   1.000
    O78     O    0.14847   0.53165   0.35480   1.000
    O79     O    0.64849   0.53165   0.35480   1.000
    O80     O    0.75783   0.50989   0.40993   1.000
    O81     O    0.25782   0.50989   0.40993   1.000
    O82     O    0.75774   0.00997   0.41008   1.000
    O83     O    0.25773   0.00997   0.41008   1.000
    O84     O    0.19863   0.52090   0.42396   1.000
    O85     O    0.69864   0.52090   0.42396   1.000
    O86     O    0.19855   0.02103   0.42406   1.000
    O87     O    0.69856   0.02103   0.42406   1.000
    O88     O    0.94844   0.47914   0.57776   1.000
    O89     O    0.00772   0.49008   0.59086   1.000
    O90     O    0.44843   0.47914   0.57776   1.000
    O91     O    0.50772   0.49008   0.59086   1.000
    O92     O    0.94845   0.97920   0.57786   1.000
    O93     O    0.00774   0.99012   0.59099   1.000
    O94     O    0.44844   0.97920   0.57786   1.000
    O95     O    0.50774   0.99012   0.59099   1.000
    O96     O    0.89843   0.46930   0.64775   1.000
    O97     O    0.39841   0.46930   0.64775   1.000
    O98     O    0.89847   0.96932   0.64787   1.000
    O99     O    0.39846   0.96932   0.64787   1.000
    O100    O    0.64072   0.80153   0.87599   1.000
    O101    O    0.14061   0.30163   0.87589   1.000
    O102    O    0.14070   0.80153   0.87599   1.000
    O103    O    0.64062   0.30163   0.87589   1.000
    O104    O    0.74541   0.27581   0.92851   1.000
    O105    O    0.24540   0.27581   0.92851   1.000
    O106    O    0.74554   0.77627   0.93034   1.000
    O107    O    0.24553   0.77627   0.93034   1.000
    O108    O    0.18572   0.28143   0.94301   1.000
    O109    O    0.68574   0.28143   0.94301   1.000
    O110    O    0.68566   0.78166   0.94379   1.000
    O111    O    0.18565   0.78166   0.94379   1.000
    N112    N    0.93644   0.46194   0.35238   1.000
    O113    O    0.00944   0.50970   0.32656   1.000
    O114    O    0.89981   0.34424   0.28600   1.000
    O115    O    0.92339   0.56192   0.28601   1.000
    O116    O    0.96108   0.47614   0.43530   1.000
    N117    N    0.68010   0.75351   0.16535   1.000
    O118    O    0.75564   0.70784   0.17015   1.000
    O119    O    0.65396   0.87175   0.21495   1.000
    O120    O    0.70139   0.75726   0.08172   1.000
    O121    O    0.67094   0.65546   0.20990   1.000
    N122    N    0.18721   0.53851   0.64785   1.000
    O123    O    0.17391   0.43851   0.71455   1.000
    O124    O    0.21181   0.52407   0.56538   1.000
    O125    O    0.15041   0.65619   0.71394   1.000
    O126    O    0.25993   0.49120   0.67481   1.000
    N127    N    0.68708   0.03839   0.64863   1.000
    O128    O    0.71168   0.02406   0.56585   1.000
    O129    O    0.67394   0.93839   0.71496   1.000
    O130    O    0.65016   0.15615   0.71456   1.000
    O131    O    0.75990   0.99117   0.67528   1.000
    N132    N    0.18707   0.03839   0.64863   1.000
    O133    O    0.25988   0.99117   0.67528   1.000
    O134    O    0.17393   0.93839   0.71496   1.000
    O135    O    0.21167   0.02406   0.56585   1.000
    O136    O    0.15014   0.15615   0.71456   1.000
    N137    N    0.68722   0.53851   0.64785   1.000
    O138    O    0.71182   0.52407   0.56538   1.000
    O139    O    0.65043   0.65619   0.71394   1.000
    O140    O    0.75994   0.49120   0.67481   1.000
    O141    O    0.67392   0.43851   0.71455   1.000
    N142    N    0.18009   0.75351   0.16534   1.000
    O143    O    0.15395   0.87175   0.21495   1.000
    O144    O    0.17093   0.65546   0.20990   1.000
    O145    O    0.20138   0.75726   0.08172   1.000
    O146    O    0.25562   0.70784   0.17014   1.000
    N147    N    0.43122   0.24785   0.83653   1.000
    O148    O    0.50624   0.29314   0.83129   1.000
    O149    O    0.40457   0.12989   0.78730   1.000
    O150    O    0.45224   0.24379   0.92015   1.000
    O151    O    0.42153   0.34606   0.79238   1.000
    N152    N    0.43080   0.74748   0.83601   1.000
    O153    O    0.40424   0.62974   0.78690   1.000
    O154    O    0.42134   0.84574   0.79216   1.000
    O155    O    0.45199   0.74329   0.91970   1.000
    O156    O    0.50609   0.79276   0.83091   1.000
    N157    N    0.68098   0.25318   0.16446   1.000
    O158    O    0.75610   0.20760   0.16951   1.000
    O159    O    0.70204   0.25682   0.08055   1.000
    O160    O    0.65449   0.37148   0.21443   1.000
    O161    O    0.67134   0.15538   0.20934   1.000
    N162    N    0.18096   0.25318   0.16446   1.000
    O163    O    0.20203   0.25682   0.08055   1.000
    O164    O    0.15448   0.37148   0.21443   1.000
    O165    O    0.25608   0.20760   0.16951   1.000
    O166    O    0.17133   0.15538   0.20934   1.000
    N167    N    0.93122   0.24785   0.83653   1.000
    O168    O    0.92154   0.34606   0.79238   1.000
    O169    O    0.00623   0.29314   0.83129   1.000
    O170    O    0.95225   0.24379   0.92015   1.000
    O171    O    0.90458   0.12989   0.78730   1.000
    N172    N    0.93643   0.96189   0.35317   1.000
    O173    O    0.92338   0.06195   0.28640   1.000
    O174    O    0.89988   0.84419   0.28668   1.000
    O175    O    0.96109   0.97615   0.43576   1.000
    O176    O    0.00947   0.00985   0.32703   1.000
    N177    N    0.43642   0.96189   0.35317   1.000
    O178    O    0.42337   0.06195   0.28640   1.000
    O179    O    0.46109   0.97615   0.43576   1.000
    O180    O    0.39987   0.84419   0.28668   1.000
    O181    O    0.50947   0.00985   0.32703   1.000
    N182    N    0.43643   0.46194   0.35238   1.000
    O183    O    0.42338   0.56192   0.28601   1.000
    O184    O    0.39980   0.34424   0.28600   1.000
    O185    O    0.50945   0.50970   0.32656   1.000
    O186    O    0.46108   0.47614   0.43530   1.000
    N187    N    0.93080   0.74748   0.83601   1.000
    O188    O    0.90425   0.62974   0.78690   1.000
    O189    O    0.00608   0.79276   0.83091   1.000
    O190    O    0.92135   0.84574   0.79216   1.000
    O191    O    0.95200   0.74329   0.91970   1.000
loop_
    _geom_bond_atom_site_label_1
    _geom_bond_atom_site_label_2
    _geom_bond_distance
    _geom_bond_site_symmetry_2
    _ccdc_geom_bond_type
    Zr27   O64       0.64611      .   S
    Zr51   O64       0.64611      .   S
    Zr27   O65       0.62531      .   S
    Zr53   O65       0.62531  1_455   S
    Zr25   O66       0.64611      .   S
    Zr49   O66       0.64611      .   S
    Zr25   O67       0.62550      .   S
    Zr55   O67       0.62550      .   S
    Zr26   O68       0.64622      .   S
    Zr50   O68       0.64622      .   S
    Zr26   O69       0.62511      .   S
    Zr52   O69       0.62511  1_455   S
    Zr24   O70       0.64621      .   S
    Zr48   O70       0.64621      .   S
    Zr24   O71       0.62530      .   S
    Zr54   O71       0.62530      .   S
    Zr51   O72       0.98494      .   S
    Zr7    O72       0.98494      .   S
    Zr49   O73       0.98494      .   S
    Zr5    O73       0.98494      .   S
    Zr50   O74       0.98470      .   S
    Zr6    O74       0.98470      .   S
    Zr48   O75       0.98470      .   S
    Zr4    O75       0.98470      .   S
    Zr2    O76       0.97874      .   S
    Zr42   O76       0.97874      .   S
    Zr0    O77       0.97874      .   S
    Zr40   O77       0.97874      .   S
    Zr1    O78       0.97798      .   S
    Zr41   O78       0.97798      .   S
    Zr3    O79       0.97798      .   S
    Zr43   O79       0.97798      .   S
    Zr47   O80       0.62457      .   S
    Zr23   O80       0.62457      .   S
    Zr45   O81       0.62458      .   S
    Zr21   O81       0.62458      .   S
    Zr46   O82       0.62462      .   S
    Zr22   O82       0.62462      .   S
    Zr44   O83       0.62461      .   S
    Zr20   O83       0.62461      .   S
    Zr41   O84       0.64814      .   S
    Zr21   O84       0.64814      .   S
    Zr43   O85       0.64815      .   S
    Zr23   O85       0.64815      .   S
    Zr40   O86       0.64818      .   S
    Zr20   O86       0.64818      .   S
    Zr42   O87       0.64818      .   S
    Zr22   O87       0.64818      .   S
    Zr30   O88       0.64825      .   S
    Zr58   O88       0.64825      .   S
    Zr30   O89       0.62426  1_655   S
    Zr60   O89       0.62426      .   S
    Zr28   O90       0.64824      .   S
    Zr56   O90       0.64824      .   S
    Zr28   O91       0.62444      .   S
    Zr62   O91       0.62444      .   S
    Zr31   O92       0.64821      .   S
    Zr59   O92       0.64821      .   S
    Zr31   O93       0.62429  1_655   S
    Zr61   O93       0.62429      .   S
    Zr29   O94       0.64820      .   S
    Zr57   O94       0.64820      .   S
    Zr29   O95       0.62448      .   S
    Zr63   O95       0.62448      .   S
    Zr58   O96       0.97996      .   S
    Zr10   O96       0.97996      .   S
    Zr56   O97       0.97996      .   S
    Zr8    O97       0.97996      .   S
    Zr59   O98       0.98009      .   S
    Zr11   O98       0.98009      .   S
    Zr57   O99       0.98009      .   S
    Zr9    O99       0.98009      .   S
    Zr15   O100      0.98502      .   S
    Zr35   O100      0.98502      .   S
    Zr12   O101      0.98473      .   S
    Zr32   O101      0.98473      .   S
    Zr13   O102      0.98502      .   S
    Zr33   O102      0.98502      .   S
    Zr14   O103      0.98472      .   S
    Zr34   O103      0.98472      .   S
    Zr38   O104      0.62564      .   S
    Zr18   O104      0.62564      .   S
    Zr36   O105      0.62564      .   S
    Zr16   O105      0.62564      .   S
    Zr39   O106      0.62522      .   S
    Zr19   O106      0.62522      .   S
    Zr37   O107      0.62523      .   S
    Zr17   O107      0.62523      .   S
    Zr32   O108      0.64612      .   S
    Zr16   O108      0.64612      .   S
    Zr34   O109      0.64613      .   S
    Zr18   O109      0.64613      .   S
    Zr35   O110      0.64623      .   S
    Zr19   O110      0.64623      .   S
    Zr33   O111      0.64623      .   S
    Zr17   O111      0.64623      .   S
    N112   O113      1.74591  1_655   S
    Zr1    O113      2.36903      .   S
    N112   O114      2.70224      .   S
    Zr6    O114      3.62514      .   S
    N112   O115      2.42063      .   S
    Zr7    O115      3.27538      .   S
    N112   O116      1.38956      .   S
    Zr30   O116      2.08448      .   S
    N117   O118      1.69632      .   S
    Zr7    O118      2.32132      .   S
    N117   O119      2.59540      .   S
    Zr2    O119      3.61692  1_545   S
    N117   O120      1.37521      .   S
    Zr19   O120      2.08240  1_556   S
    N117   O121      2.22806      .   S
    Zr3    O121      3.03258      .   S
    N122   O123      2.42456      .   S
    Zr12   O123      3.27959      .   S
    N122   O124      1.38263      .   S
    Zr21   O124      2.07445      .   S
    N122   O125      2.69882      .   S
    Zr13   O125      3.61985      .   S
    N122   O126      1.73931      .   S
    Zr8    O126      2.35979      .   S
    N127   O128      1.38681      .   S
    Zr22   O128      2.07956      .   S
    N127   O129      2.42147  1_545   S
    Zr15   O129      3.27653      .   S
    N127   O130      2.70010      .   S
    Zr14   O130      3.62022      .   S
    N127   O131      1.73819  1_545   S
    Zr11   O131      2.36073      .   S
    N132   O133      1.73819  1_545   S
    Zr9    O133      2.36073      .   S
    N132   O134      2.42148  1_545   S
    Zr13   O134      3.27653      .   S
    N132   O135      1.38681      .   S
    Zr20   O135      2.07956      .   S
    N132   O136      2.70010      .   S
    Zr12   O136      3.62022      .   S
    N137   O138      1.38263      .   S
    Zr23   O138      2.07445      .   S
    N137   O139      2.69882      .   S
    Zr15   O139      3.61984      .   S
    N137   O140      1.73931      .   S
    Zr10   O140      2.35979      .   S
    N137   O141      2.42456      .   S
    Zr14   O141      3.27959      .   S
    N142   O143      2.59540      .   S
    Zr0    O143      3.61692  1_545   S
    N142   O144      2.22807      .   S
    Zr1    O144      3.03260      .   S
    N142   O145      1.37518      .   S
    Zr17   O145      2.08237  1_556   S
    N142   O146      1.69632      .   S
    Zr5    O146      2.32132      .   S
    N147   O148      1.68703      .   S
    Zr14   O148      2.31045      .   S
    N147   O149      2.59183      .   S
    Zr9    O149      3.60939  1_565   S
    N147   O150      1.37506      .   S
    Zr24   O150      2.08072  1_554   S
    N147   O151      2.22928      .   S
    Zr8    O151      3.03399      .   S
    N152   O153      2.58690      .   S
    Zr8    O153      3.60426      .   S
    N152   O154      2.22821      .   S
    Zr9    O154      3.03550      .   S
    N152   O155      1.37729      .   S
    Zr25   O155      2.08383  1_554   S
    N152   O156      1.69089      .   S
    Zr15   O156      2.31703      .   S
    N157   O158      1.68936      .   S
    Zr6    O158      2.31256      .   S
    N157   O159      1.37804      .   S
    Zr18   O159      2.08396  1_556   S
    N157   O160      2.59899      .   S
    Zr3    O160      3.62155      .   S
    N157   O161      2.22577      .   S
    Zr2    O161      3.03299      .   S
    N162   O163      1.37804      .   S
    Zr16   O163      2.08396  1_556   S
    N162   O164      2.59899      .   S
    Zr1    O164      3.62155      .   S
    N162   O165      1.68935      .   S
    Zr4    O165      2.31255      .   S
    N162   O166      2.22578      .   S
    Zr0    O166      3.03299      .   S
    N167   O168      2.22927      .   S
    Zr10   O168      3.03397      .   S
    N167   O169      1.68688  1_655   S
    Zr12   O169      2.31027      .   S
    N167   O170      1.37508      .   S
    Zr26   O170      2.08073  1_554   S
    N167   O171      2.59182      .   S
    Zr11   O171      3.60938  1_565   S
    N172   O173      2.42525  1_565   S
    Zr6    O173      3.27884      .   S
    N172   O174      2.70250      .   S
    Zr7    O174      3.62653      .   S
    N172   O175      1.38509      .   S
    Zr31   O175      2.07922      .   S
    N172   O176      1.75031  1_665   S
    Zr0    O176      2.37054      .   S
    N177   O178      2.42525  1_565   S
    Zr4    O178      3.27886      .   S
    N177   O179      1.38511      .   S
    Zr29   O179      2.07919      .   S
    N177   O180      2.70252      .   S
    Zr5    O180      3.62653      .   S
    N177   O181      1.75044  1_565   S
    Zr2    O181      2.37071      .   S
    N182   O183      2.42063      .   S
    Zr5    O183      3.27540      .   S
    N182   O184      2.70225      .   S
    Zr4    O184      3.62515      .   S
    N182   O185      1.74603      .   S
    Zr3    O185      2.36919      .   S
    N182   O186      1.38957      .   S
    Zr28   O186      2.08445      .   S
    N187   O188      2.58689      .   S
    Zr10   O188      3.60426      .   S
    N187   O189      1.69074  1_655   S
    Zr13   O189      2.31685      .   S
    N187   O190      2.22821      .   S
    Zr11   O190      3.03548      .   S
    N187   O191      1.37731      .   S
    Zr27   O191      2.08384  1_554   S
