# CIF file generated by openbabel 2.4.90, see http://openbabel.sf.net
data_I
_chemical_name_common ''
_cell_length_a 18.942
_cell_length_b 18.96
_cell_length_c 18.965
_cell_angle_alpha 59.983
_cell_angle_beta 60.023
_cell_angle_gamma 60.017
_space_group_name_H-M_alt 'P 1'
_space_group_name_Hall 'P 1'
loop_
    _symmetry_equiv_pos_as_xyz
    x,y,z
loop_
    _atom_site_label
    _atom_site_type_symbol
    _atom_site_fract_x
    _atom_site_fract_y
    _atom_site_fract_z
    _atom_site_occupancy
    C0      C    0.66489   0.92912   0.47614   1.000
    C1      C    0.92925   0.66504   0.92963   1.000
    C2      C    0.47715   0.92949   0.66455   1.000
    C3      C    0.92968   0.47705   0.92866   1.000
    C4      C    0.66492   0.47647   0.92937   1.000
    C5      C    0.92935   0.92917   0.47654   1.000
    C6      C    0.47694   0.66467   0.92886   1.000
    C7      C    0.92960   0.92921   0.66476   1.000
    C8      C    0.66494   0.92990   0.92911   1.000
    C9      C    0.92922   0.47687   0.66460   1.000
    C10     C    0.47702   0.92883   0.92939   1.000
    C11     C    0.92966   0.66476   0.47622   1.000
    C12     C    0.07053   0.33517   0.52381   1.000
    C13     C    0.33496   0.07070   0.07020   1.000
    C14     C    0.07051   0.52306   0.33545   1.000
    C15     C    0.52290   0.07050   0.07110   1.000
    C16     C    0.52309   0.33524   0.07039   1.000
    C17     C    0.07019   0.07120   0.52300   1.000
    C18     C    0.33520   0.52344   0.07113   1.000
    C19     C    0.07082   0.07036   0.33506   1.000
    C20     C    0.07024   0.33514   0.07080   1.000
    C21     C    0.52281   0.07103   0.33534   1.000
    C22     C    0.07080   0.52309   0.07090   1.000
    C23     C    0.33501   0.07050   0.52378   1.000
