# CIF file generated by openbabel 2.4.90, see http://openbabel.sf.net
data_I
_chemical_name_common ''
_cell_length_a 16.167
_cell_length_b 16.49
_cell_length_c 16.492
_cell_angle_alpha 98.472
_cell_angle_beta 93.827
_cell_angle_gamma 93.835
_space_group_name_H-M_alt 'P 1'
_space_group_name_Hall 'P 1'
loop_
    _symmetry_equiv_pos_as_xyz
    x,y,z
loop_
    _atom_site_label
    _atom_site_type_symbol
    _atom_site_fract_x
    _atom_site_fract_y
    _atom_site_fract_z
    _atom_site_occupancy
    N0      N    0.32058   0.22595   0.65950   1.000
    N1      N    0.50351   0.92584   0.46957   1.000
    N2      N    0.17882   0.34008   0.77289   1.000
    N3      N    0.49653   0.07378   0.52991   1.000
    N4      N    0.82075   0.65945   0.22581   1.000
    N5      N    0.00378   0.46946   0.92578   1.000
    N6      N    0.67878   0.77300   0.34016   1.000
    N7      N    0.99658   0.52975   0.07382   1.000
    Zr8     Zr   0.89589   0.35855   0.33227   1.000
    O9      O    0.78682   0.27066   0.38307   1.000
    O10     O    0.90713   0.40211   0.25694   1.000
    O11     O    0.88093   0.45148   0.30409   1.000
    Zr12    Zr   0.39597   0.33236   0.35868   1.000
    O13     O    0.28690   0.38308   0.27077   1.000
    O14     O    0.40718   0.25699   0.40223   1.000
    O15     O    0.38094   0.30418   0.45157   1.000
    Zr16    Zr   0.68503   0.50964   0.93396   1.000
    O17     O    0.77670   0.51176   0.97895   1.000
    O18     O    0.71385   0.55143   0.02400   1.000
    Zr19    Zr   0.60424   0.66593   0.64034   1.000
    O20     O    0.59303   0.74151   0.59663   1.000
    O21     O    0.71339   0.61566   0.72845   1.000
    O22     O    0.61902   0.69410   0.54758   1.000
    Zr23    Zr   0.10420   0.64025   0.66591   1.000
    O24     O    0.21328   0.72841   0.61566   1.000
    O25     O    0.11899   0.54749   0.69406   1.000
    O26     O    0.09307   0.59656   0.74148   1.000
    Zr27    Zr   0.88827   0.11065   0.27607   1.000
    O28     O    0.00169   0.13739   0.38841   1.000
    O29     O    0.92597   0.21530   0.18557   1.000
    Zr30    Zr   0.38804   0.27555   0.11093   1.000
    O31     O    0.42575   0.18525   0.21556   1.000
    O32     O    0.50157   0.38796   0.13751   1.000
    Zr33    Zr   0.18493   0.93408   0.50977   1.000
    O34     O    0.27661   0.97902   0.51190   1.000
    O35     O    0.21370   0.02414   0.55154   1.000
    Zr36    Zr   0.81485   0.06527   0.49013   1.000
    O37     O    0.78582   0.97506   0.44827   1.000
    O38     O    0.72324   0.02225   0.48796   1.000
    Zr39    Zr   0.31459   0.48925   0.06481   1.000
    O40     O    0.28566   0.44767   0.97470   1.000
    O41     O    0.22315   0.48738   0.02195   1.000
    Zr42    Zr   0.61186   0.72347   0.88845   1.000
    O43     O    0.57427   0.81392   0.78375   1.000
    O44     O    0.49822   0.61118   0.86165   1.000
    Zr45    Zr   0.11188   0.88843   0.72357   1.000
    O46     O    0.99821   0.86168   0.61128   1.000
    O47     O    0.07428   0.78370   0.81400   1.000
    O48     O    0.22529   0.49619   0.07635   1.000
    O49     O    0.45672   0.52992   0.11174   1.000
    O50     O    0.27735   0.34941   0.10906   1.000
    O51     O    0.36913   0.25063   0.98615   1.000
    O52     O    0.72546   0.07663   0.49687   1.000
    O53     O    0.95683   0.11225   0.53055   1.000
    O54     O    0.27442   0.92281   0.50291   1.000
    O55     O    0.04283   0.88702   0.46930   1.000
    O56     O    0.63053   0.74830   0.01338   1.000
    O57     O    0.72269   0.64969   0.89038   1.000
    O58     O    0.96949   0.35619   0.45879   1.000
    O59     O    0.93284   0.37787   0.21855   1.000
    O60     O    0.43283   0.21862   0.37802   1.000
    O61     O    0.46954   0.45890   0.35628   1.000
    O62     O    0.56737   0.78012   0.62107   1.000
    O63     O    0.77751   0.10886   0.34985   1.000
    O64     O    0.53046   0.53957   0.64301   1.000
    O65     O    0.06735   0.62098   0.78013   1.000
    O66     O    0.54291   0.46917   0.88690   1.000
    O67     O    0.77455   0.50279   0.92271   1.000
    O68     O    0.22262   0.89038   0.64978   1.000
    O69     O    0.13059   0.01333   0.74836   1.000
    O70     O    0.03048   0.64294   0.53952   1.000
    O71     O    0.86932   0.98596   0.25094   1.000
loop_
    _geom_bond_atom_site_label_1
    _geom_bond_atom_site_label_2
    _geom_bond_distance
    _geom_bond_site_symmetry_2
    _ccdc_geom_bond_type
    Zr8    O9        2.47473      .   S
    N3     O9        6.34239      .   S
    Zr8    O10       1.53879      .   S
    N7     O10       4.20600      .   S
    Zr8    O11       1.69318      .   S
    N4     O11       3.99467      .   S
    Zr12   O13       2.47474      .   S
    N7     O13       6.34250  1_655   S
    Zr12   O14       1.53923      .   S
    N3     O14       4.20709      .   S
    Zr12   O15       1.69311      .   S
    N0     O15       3.99465      .   S
    Zr16   O17       1.60832      .   S
    N7     O17       3.76198  1_554   S
    Zr16   O18       1.56857  1_556   S
    N4     O18       3.78298      .   S
    Zr19   O20       1.54363      .   S
    N1     O20       4.21730      .   S
    Zr19   O21       2.47416      .   S
    N5     O21       6.34261  1_455   S
    Zr19   O22       1.69003      .   S
    N6     O22       3.98895      .   S
    Zr23   O24       2.47333      .   S
    N1     O24       6.34011      .   S
    Zr23   O25       1.68984      .   S
    N2     O25       3.98852      .   S
    Zr23   O26       1.54326      .   S
    N5     O26       4.21579      .   S
    Zr27   O28       2.48737  1_655   S
    N0     O28       6.53381      .   S
    Zr27   O29       2.51333      .   S
    N5     O29       6.54296  1_456   S
    Zr30   O31       2.51075      .   S
    N1     O31       6.53649  1_565   S
    Zr30   O32       2.48905      .   S
    N4     O32       6.54035      .   S
    Zr33   O34       1.60804      .   S
    N3     O34       3.76170  1_545   S
    Zr33   O35       1.56836  1_565   S
    N0     O35       3.78206      .   S
    Zr36   O37       1.57183  1_545   S
    N6     O37       3.78699      .   S
    Zr36   O38       1.59451      .   S
    N1     O38       3.76805  1_565   S
    Zr39   O40       1.56874  1_554   S
    N2     O40       3.78043      .   S
    Zr39   O41       1.59176      .   S
    N5     O41       3.76188  1_556   S
    Zr42   O43       2.51297      .   S
    N3     O43       6.54004  1_545   S
    Zr42   O44       2.48889      .   S
    N2     O44       6.53961      .   S
    Zr45   O46       2.48949  1_455   S
    N6     O46       6.54076      .   S
    Zr45   O47       2.51298      .   S
    N7     O47       6.54055  1_654   S
    Zr39   O48       1.47848      .   S
    N7     O48       3.77360  1_655   S
    Zr39   O49       2.39424      .   S
    N4     O49       6.19642      .   S
    Zr30   O50       2.23217      .   S
    N7     O50       5.63454  1_655   S
    Zr30   O51       2.03654  1_554   S
    N0     O51       5.34316      .   S
    Zr36   O52       1.47896      .   S
    N3     O52       3.77494      .   S
    Zr36   O53       2.39159      .   S
    N0     O53       6.18870  1_455   S
    Zr33   O54       1.48051      .   S
    N1     O54       3.77859      .   S
    Zr33   O55       2.39371      .   S
    N6     O55       6.19503  1_655   S
    Zr42   O56       2.03859  1_556   S
    N6     O56       5.34499      .   S
    Zr42   O57       2.23323      .   S
    N5     O57       5.63810  1_455   S
    Zr8    O58       2.33882      .   S
    N2     O58       6.04500  1_455   S
    Zr8    O59       2.06783      .   S
    N5     O59       5.43747  1_456   S
    Zr12   O60       2.06767      .   S
    N1     O60       5.43600  1_565   S
    Zr12   O61       2.33850      .   S
    N6     O61       6.04342      .   S
    N3     O62       5.44781  1_545   S
    Zr19   O62       2.07440      .   S
    N3     O63       5.63403      .   S
    Zr27   O63       2.23212      .   S
    Zr19   O64       2.33846      .   S
    N0     O64       6.04348      .   S
    N7     O65       5.44883  1_654   S
    Zr23   O65       2.07474      .   S
    Zr16   O66       2.39395      .   S
    N2     O66       6.19525      .   S
    Zr16   O67       1.48099      .   S
    N5     O67       3.78077  1_455   S
    Zr45   O68       2.23209      .   S
    N1     O68       5.63516      .   S
    Zr45   O69       2.03791  1_565   S
    N2     O69       5.34388      .   S
    Zr23   O70       2.33885      .   S
    N4     O70       6.04435  1_655   S
    Zr27   O71       2.03490  1_545   S
    N4     O71       5.33954      .   S
