# CIF file generated by openbabel 2.4.90, see http://openbabel.sf.net
data_I
_chemical_name_common ''
_cell_length_a 14.565
_cell_length_b 15.855
_cell_length_c 18.856
_cell_angle_alpha 90.398
_cell_angle_beta 90.114
_cell_angle_gamma 90.004
_space_group_name_H-M_alt 'P 1'
_space_group_name_Hall 'P 1'
loop_
    _symmetry_equiv_pos_as_xyz
    x,y,z
loop_
    _atom_site_label
    _atom_site_type_symbol
    _atom_site_fract_x
    _atom_site_fract_y
    _atom_site_fract_z
    _atom_site_occupancy
    Zr0     Zr   0.52788   0.42992   0.04018   1.000
    Zr1     Zr   0.34347   0.36341   0.03424   1.000
    Zr2     Zr   0.46927   0.07102   0.53826   1.000
    Zr3     Zr   0.65612   0.13676   0.53394   1.000
    Zr4     Zr   0.46859   0.56997   0.95675   1.000
    Zr5     Zr   0.65569   0.63422   0.96285   1.000
    Zr6     Zr   0.53076   0.92867   0.45859   1.000
    Zr7     Zr   0.34391   0.86311   0.46301   1.000
    Zr8     Zr   0.96901   0.92649   0.95922   1.000
    Zr9     Zr   0.15606   0.86245   0.96346   1.000
    Zr10    Zr   0.03139   0.56991   0.45696   1.000
    Zr11    Zr   0.84423   0.63420   0.46280   1.000
    Zr12    Zr   0.03086   0.07060   0.03807   1.000
    Zr13    Zr   0.84390   0.13595   0.03381   1.000
    Zr14    Zr   0.97214   0.42986   0.54021   1.000
    Zr15    Zr   0.15663   0.36351   0.53442   1.000
    Zr16    Zr   0.34785   0.50827   0.03321   1.000
    Zr17    Zr   0.65130   0.99220   0.53382   1.000
    Zr18    Zr   0.64868   0.49026   0.96356   1.000
    Zr19    Zr   0.34861   0.00760   0.46309   1.000
    Zr20    Zr   0.15087   0.00632   0.96322   1.000
    Zr21    Zr   0.85107   0.49028   0.46356   1.000
    Zr22    Zr   0.84942   0.99160   0.03399   1.000
    Zr23    Zr   0.15232   0.50837   0.53346   1.000
    Zr24    Zr   0.47602   0.29284   0.94045   1.000
    Zr25    Zr   0.53727   0.14786   0.66315   1.000
    Zr26    Zr   0.18975   0.46621   0.03303   1.000
    Zr27    Zr   0.52448   0.20618   0.43867   1.000
    Zr28    Zr   0.46159   0.35367   0.16411   1.000
    Zr29    Zr   0.80981   0.03352   0.53296   1.000
    Zr30    Zr   0.52192   0.70650   0.05612   1.000
    Zr31    Zr   0.46262   0.85197   0.33367   1.000
    Zr32    Zr   0.80922   0.53238   0.96398   1.000
    Zr33    Zr   0.47554   0.79355   0.55832   1.000
    Zr34    Zr   0.53715   0.64472   0.83274   1.000
    Zr35    Zr   0.19011   0.96616   0.46387   1.000
    Zr36    Zr   0.02402   0.79246   0.05861   1.000
    Zr37    Zr   0.96260   0.64448   0.33293   1.000
    Zr38    Zr   0.30995   0.96436   0.96381   1.000
    Zr39    Zr   0.97824   0.70658   0.55610   1.000
    Zr40    Zr   0.03671   0.85046   0.83437   1.000
    Zr41    Zr   0.69046   0.53270   0.46394   1.000
    Zr42    Zr   0.97629   0.20467   0.93825   1.000
    Zr43    Zr   0.03865   0.35338   0.66413   1.000
    Zr44    Zr   0.69030   0.03300   0.03293   1.000
    Zr45    Zr   0.02399   0.29287   0.44043   1.000
    Zr46    Zr   0.96301   0.14784   0.16289   1.000
    Zr47    Zr   0.31023   0.46673   0.53305   1.000
    Zr48    Zr   0.40319   0.48083   0.00855   1.000
    Zr49    Zr   0.53984   0.33670   0.96886   1.000
    Zr50    Zr   0.39462   0.28466   0.96526   1.000
    Zr51    Zr   0.46898   0.10754   0.63581   1.000
    Zr52    Zr   0.61298   0.16318   0.63214   1.000
    Zr53    Zr   0.21470   0.38750   0.02800   1.000
    Zr54    Zr   0.24231   0.52636   0.04957   1.000
    Zr55    Zr   0.59581   0.01921   0.50913   1.000
    Zr56    Zr   0.46030   0.16270   0.46630   1.000
    Zr57    Zr   0.60585   0.21429   0.46388   1.000
    Zr58    Zr   0.52870   0.39614   0.13802   1.000
    Zr59    Zr   0.38648   0.33705   0.13231   1.000
    Zr60    Zr   0.78495   0.11219   0.52797   1.000
    Zr61    Zr   0.75728   0.97369   0.54949   1.000
    Zr62    Zr   0.59402   0.51842   0.98812   1.000
    Zr63    Zr   0.45741   0.66312   0.02803   1.000
    Zr64    Zr   0.60319   0.71416   0.03097   1.000
    Zr65    Zr   0.53099   0.89226   0.36096   1.000
    Zr66    Zr   0.38696   0.83675   0.36478   1.000
    Zr67    Zr   0.78463   0.61125   0.96908   1.000
    Zr68    Zr   0.75641   0.47246   0.94750   1.000
    Zr69    Zr   0.40414   0.98059   0.48772   1.000
    Zr70    Zr   0.53971   0.83714   0.53078   1.000
    Zr71    Zr   0.39417   0.78556   0.53306   1.000
    Zr72    Zr   0.46890   0.60384   0.85894   1.000
    Zr73    Zr   0.61281   0.65953   0.86434   1.000
    Zr74    Zr   0.21504   0.88752   0.46888   1.000
    Zr75    Zr   0.24261   0.00000   0.44743   1.000
    Zr76    Zr   0.09563   0.97942   0.98802   1.000
    Zr77    Zr   0.95926   0.83534   0.03075   1.000
    Zr78    Zr   0.10550   0.78533   0.03380   1.000
    Zr79    Zr   0.03099   0.60377   0.35934   1.000
    Zr80    Zr   0.88701   0.65939   0.36434   1.000
    Zr81    Zr   0.28518   0.88565   0.96899   1.000
    Zr82    Zr   0.25723   0.00000   0.94728   1.000
    Zr83    Zr   0.90588   0.51838   0.48812   1.000
    Zr84    Zr   0.04269   0.66318   0.52813   1.000
    Zr85    Zr   0.89694   0.71428   0.53080   1.000
    Zr86    Zr   0.96900   0.89205   0.86103   1.000
    Zr87    Zr   0.11148   0.83343   0.86633   1.000
    Zr88    Zr   0.71526   0.61151   0.46906   1.000
    Zr89    Zr   0.74308   0.47272   0.44745   1.000
    Zr90    Zr   0.90470   0.01831   0.00910   1.000
    Zr91    Zr   0.04111   0.16225   0.96641   1.000
    Zr92    Zr   0.89466   0.21167   0.96291   1.000
    Zr93    Zr   0.97151   0.39603   0.63806   1.000
    Zr94    Zr   0.11370   0.33697   0.63241   1.000
    Zr95    Zr   0.71499   0.11171   0.02784   1.000
    Zr96    Zr   0.74302   0.97336   0.04963   1.000
    Zr97    Zr   0.09683   0.48084   0.50883   1.000
    Zr98    Zr   0.96017   0.33668   0.46873   1.000
    Zr99    Zr   0.10542   0.28469   0.46544   1.000
    Zr100   Zr   0.03119   0.10743   0.13572   1.000
    Zr101   Zr   0.88724   0.16321   0.13172   1.000
    Zr102   Zr   0.28529   0.38801   0.52805   1.000
    Zr103   Zr   0.25773   0.52685   0.54963   1.000
    O104    O    0.37552   0.49455   0.02088   1.000
    O105    O    0.43589   0.52540   0.98265   1.000
    O106    O    0.87706   0.00495   0.02154   1.000
    O107    O    0.93685   0.97240   0.98416   1.000
    O108    O    0.70265   0.07235   0.03039   1.000
    O109    O    0.77944   0.12383   0.03082   1.000
    O110    O    0.20223   0.42685   0.03051   1.000
    O111    O    0.27908   0.37545   0.03112   1.000
    O112    O    0.48967   0.68481   0.04207   1.000
    O113    O    0.46300   0.61654   0.99239   1.000
    O114    O    0.99164   0.81390   0.04468   1.000
    O115    O    0.96413   0.88091   0.99498   1.000
    O116    O    0.56256   0.71033   0.04355   1.000
    O117    O    0.62944   0.67419   0.99691   1.000
    O118    O    0.71666   0.00318   0.04128   1.000
    O119    O    0.21603   0.49628   0.04130   1.000
    O120    O    0.06476   0.78889   0.04620   1.000
    O121    O    0.13078   0.82389   0.99863   1.000
    O122    O    0.86557   0.14958   0.08276   1.000
    O123    O    0.86928   0.17381   0.99836   1.000
    O124    O    0.36497   0.35023   0.08327   1.000
    O125    O    0.36904   0.32403   0.99975   1.000
    O126    O    0.03102   0.08901   0.08689   1.000
    O127    O    0.03598   0.11642   0.00224   1.000
    O128    O    0.06324   0.02501   0.01304   1.000
    O129    O    0.52829   0.41303   0.08910   1.000
    O130    O    0.53386   0.38331   0.00452   1.000
    O131    O    0.56095   0.47417   0.01415   1.000
    O132    O    0.92512   0.15552   0.14730   1.000
    O133    O    0.42403   0.34536   0.14821   1.000
    O134    O    0.99710   0.12763   0.14930   1.000
    O135    O    0.49514   0.37490   0.15106   1.000
    O136    O    0.99679   0.62412   0.34613   1.000
    O137    O    0.92480   0.65193   0.34863   1.000
    O138    O    0.49680   0.87211   0.34731   1.000
    O139    O    0.42479   0.84436   0.34922   1.000
    O140    O    0.03119   0.58684   0.40815   1.000
    O141    O    0.53087   0.91046   0.40977   1.000
    O142    O    0.86562   0.64679   0.41357   1.000
    O143    O    0.36543   0.84993   0.41389   1.000
    O144    O    0.56516   0.21023   0.45127   1.000
    O145    O    0.49239   0.18444   0.45248   1.000
    O146    O    0.06470   0.28878   0.45293   1.000
    O147    O    0.99208   0.31477   0.45458   1.000
    O148    O    0.21636   0.98308   0.45565   1.000
    O149    O    0.71677   0.50271   0.45570   1.000
    O150    O    0.06411   0.52537   0.48289   1.000
    O151    O    0.03704   0.61654   0.49254   1.000
    O152    O    0.56328   0.97394   0.48386   1.000
    O153    O    0.53524   0.88290   0.49468   1.000
    O154    O    0.77974   0.62285   0.46593   1.000
    O155    O    0.87058   0.67424   0.49680   1.000
    O156    O    0.27947   0.87531   0.46594   1.000
    O157    O    0.36904   0.82433   0.49804   1.000
    O158    O    0.37637   0.99409   0.47540   1.000
    O159    O    0.87847   0.50433   0.47584   1.000
    O160    O    0.20257   0.92684   0.46637   1.000
    O161    O    0.63099   0.17552   0.49891   1.000
    O162    O    0.70286   0.57210   0.46650   1.000
    O163    O    0.13102   0.32410   0.49993   1.000
    O164    O    0.46478   0.11686   0.50228   1.000
    O165    O    0.96615   0.38327   0.50447   1.000
    O166    O    0.43671   0.02580   0.51299   1.000
    O167    O    0.93901   0.47412   0.51416   1.000
    O168    O    0.12457   0.49460   0.52114   1.000
    O169    O    0.62355   0.00570   0.52147   1.000
    O170    O    0.79738   0.07285   0.53047   1.000
    O171    O    0.72054   0.12447   0.53096   1.000
    O172    O    0.29776   0.42737   0.53055   1.000
    O173    O    0.22096   0.37576   0.53123   1.000
    O174    O    0.01046   0.68488   0.54212   1.000
    O175    O    0.50762   0.81534   0.54455   1.000
    O176    O    0.93759   0.71043   0.54345   1.000
    O177    O    0.78355   0.00360   0.54122   1.000
    O178    O    0.28398   0.49679   0.54134   1.000
    O179    O    0.43485   0.78955   0.54569   1.000
    O180    O    0.63455   0.14997   0.58304   1.000
    O181    O    0.06439   0.39668   0.53731   1.000
    O182    O    0.13516   0.35024   0.58341   1.000
    O183    O    0.46912   0.08928   0.58703   1.000
    O184    O    0.97182   0.41294   0.58913   1.000
    O185    O    0.57512   0.15552   0.64764   1.000
    O186    O    0.07617   0.34517   0.64827   1.000
    O187    O    0.50312   0.12770   0.64948   1.000
    O188    O    0.00508   0.37470   0.65109   1.000
    O189    O    0.50303   0.62428   0.84584   1.000
    O190    O    0.57498   0.65212   0.84854   1.000
    O191    O    0.00285   0.87125   0.84770   1.000
    O192    O    0.07410   0.84194   0.85035   1.000
    O193    O    0.46874   0.58690   0.90784   1.000
    O194    O    0.96901   0.90927   0.91012   1.000
    O195    O    0.63425   0.64687   0.91359   1.000
    O196    O    0.13377   0.84794   0.91489   1.000
    O197    O    0.93547   0.20817   0.95058   1.000
    O198    O    0.00870   0.18346   0.95233   1.000
    O199    O    0.43532   0.28875   0.95285   1.000
    O200    O    0.50793   0.31477   0.95465   1.000
    O201    O    0.28359   0.98218   0.95554   1.000
    O202    O    0.78281   0.50242   0.95574   1.000
    O203    O    0.72016   0.62273   0.96596   1.000
    O204    O    0.12325   0.99287   0.97562   1.000
    O205    O    0.22062   0.87405   0.96622   1.000
    O206    O    0.62135   0.50434   0.97584   1.000
    O207    O    0.29756   0.92500   0.96640   1.000
    O208    O    0.79692   0.57181   0.96653   1.000
    O209    O    0.46554   0.45537   0.02437   1.000
    O210    O    0.37333   0.42212   0.02139   1.000
    O211    O    0.53254   0.04511   0.52369   1.000
    O212    O    0.62596   0.07798   0.52153   1.000
    O213    O    0.53130   0.54419   0.97243   1.000
    O214    O    0.62486   0.57632   0.97548   1.000
    O215    O    0.46745   0.95463   0.47315   1.000
    O216    O    0.37402   0.92185   0.47536   1.000
    O217    O    0.03232   0.95295   0.97362   1.000
    O218    O    0.12584   0.92093   0.97574   1.000
    O219    O    0.96863   0.54414   0.47254   1.000
    O220    O    0.87506   0.57629   0.47546   1.000
    O221    O    0.96778   0.04445   0.02358   1.000
    O222    O    0.87430   0.07713   0.02145   1.000
    O223    O    0.03448   0.45535   0.52452   1.000
    O224    O    0.12673   0.42217   0.52163   1.000
    N225    N    0.99993   0.99980   0.49833   1.000
    O226    O    0.92949   0.01238   0.51138   1.000
    O227    O    0.07039   0.98724   0.48532   1.000
    N228    N    0.50998   0.71300   0.69264   1.000
    O229    O    0.49759   0.74226   0.64250   1.000
    O230    O    0.52037   0.68719   0.74441   1.000
    N231    N    0.48854   0.78593   0.19193   1.000
    O232    O    0.50051   0.75717   0.14121   1.000
    O233    O    0.47863   0.81090   0.24432   1.000
    N234    N    0.99951   0.49923   0.00159   1.000
    O235    O    0.06999   0.48690   0.01306   1.000
    O236    O    0.92901   0.51159   0.98701   1.000
    N237    N    0.01141   0.78547   0.69220   1.000
    O238    O    0.99955   0.75695   0.64136   1.000
    O239    O    0.02109   0.81006   0.74475   1.000
    N240    N    0.98960   0.21374   0.30464   1.000
    O241    O    0.97943   0.18883   0.25224   1.000
    O242    O    0.00192   0.24239   0.35535   1.000
    N243    N    0.48957   0.28601   0.30421   1.000
    O244    O    0.50215   0.25703   0.35440   1.000
    O245    O    0.47889   0.31158   0.25244   1.000
    N246    N    0.50029   0.49974   0.49840   1.000
    O247    O    0.42987   0.48743   0.51146   1.000
    O248    O    0.57074   0.51203   0.48540   1.000
    N249    N    0.50016   0.99866   0.00151   1.000
    O250    O    0.57061   0.01148   0.01294   1.000
    O251    O    0.42970   0.98585   0.98687   1.000
    N252    N    0.98965   0.71215   0.19280   1.000
    O253    O    0.00202   0.74130   0.14270   1.000
    O254    O    0.97930   0.68657   0.24458   1.000
    N255    N    0.01082   0.28495   0.80397   1.000
    O256    O    0.99835   0.25578   0.85408   1.000
    O257    O    0.02144   0.31079   0.75229   1.000
    N258    N    0.51057   0.21367   0.80482   1.000
    O259    O    0.52079   0.18878   0.75246   1.000
    O260    O    0.49818   0.24233   0.85548   1.000
loop_
    _geom_bond_atom_site_label_1
    _geom_bond_atom_site_label_2
    _geom_bond_distance
    _geom_bond_site_symmetry_2
    _ccdc_geom_bond_type
    Zr48   O104      0.51330      .   S
    Zr16   O104      0.51330      .   S
    Zr48   O105      0.98508  1_554   S
    Zr4    O105      0.98508      .   S
    Zr90   O106      0.51286      .   S
    Zr22   O106      0.51286  1_565   S
    Zr90   O107      0.98311  1_544   S
    Zr8    O107      0.98311      .   S
    Zr95   O108      0.65147      .   S
    Zr44   O108      0.65147      .   S
    Zr95   O109      0.95970      .   S
    Zr13   O109      0.95970      .   S
    Zr53   O110      0.65134      .   S
    Zr26   O110      0.65134      .   S
    Zr53   O111      0.95880      .   S
    Zr1    O111      0.95880      .   S
    Zr63   O112      0.63822      .   S
    Zr30   O112      0.63822      .   S
    Zr63   O113      0.99844  1_554   S
    Zr4    O113      0.99844      .   S
    Zr77   O114      0.63854      .   S
    Zr36   O114      0.63854  1_455   S
    Zr77   O115      0.99445  1_554   S
    Zr8    O115      0.99445      .   S
    Zr64   O116      0.64105      .   S
    Zr30   O116      0.64105      .   S
    Zr64   O117      0.97755  1_554   S
    Zr5    O117      0.97755      .   S
    Zr44   O118      0.62972      .   S
    Zr96   O118      0.62972  1_565   S
    Zr26   O119      0.63001      .   S
    Zr54   O119      0.63001      .   S
    Zr78   O120      0.64061      .   S
    Zr36   O120      0.64061      .   S
    Zr78   O121      0.97760  1_554   S
    Zr9    O121      0.97760      .   S
    Zr13   O122      0.99724      .   S
    Zr101  O122      0.99724      .   S
    Zr13   O123      0.97484  1_554   S
    Zr92   O123      0.97484      .   S
    Zr1    O124      0.99910      .   S
    Zr59   O124      0.99910      .   S
    Zr1    O125      0.97304  1_554   S
    Zr50   O125      0.97304      .   S
    Zr12   O126      0.96390      .   S
    Zr100  O126      0.96390      .   S
    Zr12   O127      0.99846      .   S
    Zr91   O127      0.99846  1_556   S
    Zr12   O128      0.98175      .   S
    Zr76   O128      0.98175  1_566   S
    Zr0    O129      0.96231      .   S
    Zr58   O129      0.96231      .   S
    Zr0    O130      0.99959      .   S
    Zr49   O130      0.99959  1_556   S
    Zr0    O131      0.98529      .   S
    Zr62   O131      0.98529  1_556   S
    Zr101  O132      0.63682      .   S
    Zr46   O132      0.63682      .   S
    Zr59   O133      0.63658      .   S
    Zr28   O133      0.63658      .   S
    Zr100  O134      0.64355  1_455   S
    Zr46   O134      0.64355      .   S
    Zr58   O135      0.64368      .   S
    Zr28   O135      0.64368      .   S
    Zr37   O136      0.64409      .   S
    Zr79   O136      0.64409  1_455   S
    Zr37   O137      0.63629      .   S
    Zr80   O137      0.63629      .   S
    Zr31   O138      0.64378      .   S
    Zr65   O138      0.64378      .   S
    Zr31   O139      0.63664      .   S
    Zr66   O139      0.63664      .   S
    Zr79   O140      0.96049      .   S
    Zr10   O140      0.96049      .   S
    Zr65   O141      0.96274      .   S
    Zr6    O141      0.96274      .   S
    Zr80   O142      1.00118      .   S
    Zr11   O142      1.00118      .   S
    Zr66   O143      0.99906      .   S
    Zr7    O143      0.99906      .   S
    Zr27   O144      0.64109      .   S
    Zr57   O144      0.64109      .   S
    Zr27   O145      0.63783      .   S
    Zr56   O145      0.63783      .   S
    Zr45   O146      0.64119      .   S
    Zr99   O146      0.64119      .   S
    Zr45   O147      0.63800  1_455   S
    Zr98   O147      0.63800      .   S
    Zr75   O148      0.49292  1_545   S
    Zr35   O148      0.49292      .   S
    Zr89   O149      0.62956      .   S
    Zr41   O149      0.62956      .   S
    Zr10   O150      0.98426      .   S
    Zr97   O150      0.98426      .   S
    Zr10   O151      0.99829      .   S
    Zr84   O151      0.99829      .   S
    Zr6    O152      0.98027      .   S
    Zr55   O152      0.98027  1_545   S
    Zr6    O153      1.00033      .   S
    Zr70   O153      1.00033      .   S
    Zr11   O154      0.95829      .   S
    Zr88   O154      0.95829      .   S
    Zr11   O155      0.97709      .   S
    Zr85   O155      0.97709      .   S
    Zr7    O156      0.95988      .   S
    Zr74   O156      0.95988      .   S
    Zr7    O157      0.97612      .   S
    Zr71   O157      0.97612      .   S
    Zr19   O158      0.51346  1_545   S
    Zr69   O158      0.51346      .   S
    Zr21   O159      0.51134      .   S
    Zr83   O159      0.51134      .   S
    Zr35   O160      0.65133      .   S
    Zr74   O160      0.65133      .   S
    Zr57   O161      0.97611      .   S
    Zr3    O161      0.97611      .   S
    Zr41   O162      0.65178      .   S
    Zr88   O162      0.65178      .   S
    Zr99   O163      0.97253      .   S
    Zr15   O163      0.97253      .   S
    Zr56   O164      0.99973      .   S
    Zr2    O164      0.99973      .   S
    Zr98   O165      1.00013      .   S
    Zr14   O165      1.00013      .   S
    Zr69   O166      0.97992  1_565   S
    Zr2    O166      0.97992      .   S
    Zr83   O167      0.98507      .   S
    Zr14   O167      0.98507      .   S
    Zr97   O168      0.51358      .   S
    Zr23   O168      0.51358      .   S
    Zr55   O169      0.51348      .   S
    Zr17   O169      0.51348  1_565   S
    Zr60   O170      0.65140      .   S
    Zr29   O170      0.65140      .   S
    Zr60   O171      0.95991      .   S
    Zr3    O171      0.95991      .   S
    Zr102  O172      0.65130      .   S
    Zr47   O172      0.65130      .   S
    Zr102  O173      0.95896      .   S
    Zr15   O173      0.95896      .   S
    Zr84   O174      0.63833      .   S
    Zr39   O174      0.63833  1_655   S
    Zr70   O175      0.63790      .   S
    Zr33   O175      0.63790      .   S
    Zr85   O176      0.64095      .   S
    Zr39   O176      0.64095      .   S
    Zr29   O177      0.62995      .   S
    Zr61   O177      0.62995  1_565   S
    Zr47   O178      0.63007      .   S
    Zr103  O178      0.63007      .   S
    Zr71   O179      0.64117      .   S
    Zr33   O179      0.64117      .   S
    Zr3    O180      0.99910      .   S
    Zr52   O180      0.99910      .   S
    Zr15   O181      1.44387      .   S
    Zr14   O181      1.44387  1_655   S
    Zr15   O182      0.99967      .   S
    Zr94   O182      0.99967      .   S
    Zr2    O183      0.96228      .   S
    Zr51   O183      0.96228      .   S
    Zr14   O184      0.96253      .   S
    Zr93   O184      0.96253      .   S
    Zr52   O185      0.63667      .   S
    Zr25   O185      0.63667      .   S
    Zr94   O186      0.63655      .   S
    Zr43   O186      0.63655      .   S
    Zr51   O187      0.64363      .   S
    Zr25   O187      0.64363      .   S
    Zr93   O188      0.64381  1_655   S
    Zr43   O188      0.64381      .   S
    Zr34   O189      0.64394      .   S
    Zr72   O189      0.64394      .   S
    Zr34   O190      0.63639      .   S
    Zr73   O190      0.63639      .   S
    Zr40   O191      0.64373      .   S
    Zr86   O191      0.64373  1_655   S
    Zr40   O192      0.63674      .   S
    Zr87   O192      0.63674      .   S
    Zr72   O193      0.96224      .   S
    Zr4    O193      0.96224      .   S
    Zr86   O194      0.96334      .   S
    Zr8    O194      0.96334      .   S
    Zr73   O195      1.00090      .   S
    Zr5    O195      1.00090      .   S
    Zr87   O196      0.99639      .   S
    Zr9    O196      0.99639      .   S
    Zr42   O197      0.64102      .   S
    Zr92   O197      0.64102      .   S
    Zr42   O198      0.63810  1_655   S
    Zr91   O198      0.63810      .   S
    Zr24   O199      0.64116      .   S
    Zr50   O199      0.64116      .   S
    Zr24   O200      0.63784      .   S
    Zr49   O200      0.63784      .   S
    Zr82   O201      0.50190  1_545   S
    Zr38   O201      0.50190      .   S
    Zr68   O202      0.62960      .   S
    Zr32   O202      0.62960      .   S
    Zr5    O203      0.95828      .   S
    Zr67   O203      0.95828      .   S
    Zr20   O204      0.51287  1_545   S
    Zr76   O204      0.51287      .   S
    Zr9    O205      0.95937      .   S
    Zr81   O205      0.95937      .   S
    Zr18   O206      0.51143      .   S
    Zr62   O206      0.51143      .   S
    Zr38   O207      0.65170      .   S
    Zr81   O207      0.65170      .   S
    Zr32   O208      0.65187      .   S
    Zr67   O208      0.65187      .   S
    Zr48   O209      1.03780      .   S
    Zr0    O209      1.03780      .   S
    Zr48   O210      1.05725      .   S
    Zr1    O210      1.05725      .   S
    Zr55   O211      1.04538      .   S
    Zr2    O211      1.04538      .   S
    Zr55   O212      1.05476      .   S
    Zr3    O212      1.05476      .   S
    Zr62   O213      1.04380      .   S
    Zr4    O213      1.04380      .   S
    Zr62   O214      1.05100      .   S
    Zr5    O214      1.05100      .   S
    Zr69   O215      1.04624      .   S
    Zr6    O215      1.04624      .   S
    Zr69   O216      1.05383      .   S
    Zr7    O216      1.05383      .   S
    Zr76   O217      1.04759      .   S
    Zr8    O217      1.04759  1_655   S
    Zr76   O218      1.05101      .   S
    Zr9    O218      1.05101      .   S
    Zr83   O219      1.04466      .   S
    Zr10   O219      1.04466  1_455   S
    Zr83   O220      1.05084      .   S
    Zr11   O220      1.05084      .   S
    Zr90   O221      1.04304      .   S
    Zr12   O221      1.04304  1_455   S
    Zr90   O222      1.05712      .   S
    Zr13   O222      1.05712      .   S
    Zr97   O223      1.03832      .   S
    Zr14   O223      1.03832  1_655   S
    Zr97   O224      1.05630      .   S
    Zr15   O224      1.05630      .   S
    N225   O226      1.07394  1_565   S
    Zr29   O226      1.82140      .   S
    N225   O227      1.07387  1_655   S
    Zr35   O227      1.82127      .   S
    N228   O229      1.07107      .   S
    Zr33   O229      1.81660      .   S
    N228   O230      1.07144      .   S
    Zr34   O230      1.81694      .   S
    N231   O232      1.07123      .   S
    Zr30   O232      1.81691      .   S
    N231   O233      1.07179      .   S
    Zr31   O233      1.81741      .   S
    N234   O235      1.06704  1_655   S
    Zr26   O235      1.81419      .   S
    N234   O236      1.08068  1_554   S
    Zr32   O236      1.82769      .   S
    N237   O238      1.07082  1_455   S
    Zr39   O238      1.81621      .   S
    N237   O239      1.07144      .   S
    Zr40   O239      1.81687      .   S
    N240   O241      1.07145      .   S
    Zr46   O241      1.81696      .   S
    N240   O242      1.07067  1_655   S
    Zr45   O242      1.81587      .   S
    N243   O244      1.07037      .   S
    Zr27   O244      1.81556      .   S
    N243   O245      1.07077      .   S
    Zr28   O245      1.81566      .   S
    N246   O247      1.07346      .   S
    Zr47   O247      1.82064      .   S
    N246   O248      1.07361      .   S
    Zr41   O248      1.82102      .   S
    N249   O250      1.06723  1_565   S
    Zr44   O250      1.81474      .   S
    N249   O251      1.08109  1_554   S
    Zr38   O251      1.82813      .   S
    N252   O253      1.07016  1_655   S
    Zr36   O253      1.81508      .   S
    N252   O254      1.07075      .   S
    Zr37   O254      1.81578      .   S
    N255   O256      1.07078  1_455   S
    Zr42   O256      1.81614      .   S
    N255   O257      1.07125      .   S
    Zr43   O257      1.81643      .   S
    N258   O259      1.07136      .   S
    Zr25   O259      1.81681      .   S
    N258   O260      1.07060      .   S
    Zr24   O260      1.81576      .   S
