# CIF file generated by openbabel 2.4.90, see http://openbabel.sf.net
data_I
_chemical_name_common ''
_cell_length_a 16.243
_cell_length_b 16.245
_cell_length_c 23.175
_cell_angle_alpha 73.291
_cell_angle_beta 73.07
_cell_angle_gamma 67.44
_space_group_name_H-M_alt 'P 1'
_space_group_name_Hall 'P 1'
loop_
    _symmetry_equiv_pos_as_xyz
    x,y,z
loop_
    _atom_site_label
    _atom_site_type_symbol
    _atom_site_fract_x
    _atom_site_fract_y
    _atom_site_fract_z
    _atom_site_occupancy
    C0      C    0.14165   0.44274   0.55139   1.000
    C1      C    0.48915   0.10952   0.89076   1.000
    C2      C    0.55745   0.85681   0.94980   1.000
    C3      C    0.88862   0.51201   0.60868   1.000
    C4      C    0.85842   0.55709   0.44857   1.000
    C5      C    0.51094   0.89040   0.10916   1.000
    C6      C    0.44257   0.14313   0.05012   1.000
    C7      C    0.11150   0.48802   0.39122   1.000
