# CIF file generated by openbabel 2.4.90, see http://openbabel.sf.net
data_I
_chemical_name_common ''
_cell_length_a 14.42
_cell_length_b 16.433
_cell_length_c 18.991
_cell_angle_alpha 115.842
_cell_angle_beta 102.848
_cell_angle_gamma 89.993
_space_group_name_H-M_alt 'P 1'
_space_group_name_Hall 'P 1'
loop_
    _symmetry_equiv_pos_as_xyz
    x,y,z
loop_
    _atom_site_label
    _atom_site_type_symbol
    _atom_site_fract_x
    _atom_site_fract_y
    _atom_site_fract_z
    _atom_site_occupancy
    H0      H    0.05676   0.01751   0.82861   1.000
    H1      H    0.16489   0.89742   0.82806   1.000
    H2      H    0.04358   0.73821   0.57414   1.000
    H3      H    0.93566   0.85863   0.57482   1.000
    H4      H    0.50378   0.48598   0.86998   1.000
    H5      H    0.39241   0.33135   0.61430   1.000
    H6      H    0.50225   0.21314   0.61394   1.000
    H7      H    0.61309   0.36691   0.86980   1.000
    H8      H    0.85615   0.03229   0.88790   1.000
    H9      H    0.95188   0.04816   0.02132   1.000
    H10     H    0.94259   0.33850   0.11590   1.000
    H11     H    0.84819   0.31112   0.97806   1.000
    H12     H    0.17805   0.14362   0.25333   1.000
    H13     H    0.01532   0.41722   0.35488   1.000
    H14     H    0.08147   0.53278   0.49780   1.000
    H15     H    0.32034   0.39881   0.52263   1.000
    H16     H    0.26811   0.27933   0.37978   1.000
    H17     H    0.55674   0.81161   0.82815   1.000
    H18     H    0.66489   0.93095   0.82746   1.000
    H19     H    0.54348   0.83418   0.57354   1.000
    H20     H    0.43568   0.71444   0.57430   1.000
    H21     H    0.00495   0.38413   0.86990   1.000
    H22     H    0.89181   0.28255   0.61455   1.000
    H23     H    0.00124   0.40066   0.61418   1.000
    H24     H    0.11410   0.50316   0.86974   1.000
    H25     H    0.35785   0.85652   0.88888   1.000
    H26     H    0.45360   0.97409   0.02289   1.000
    H27     H    0.44141   0.77787   0.11578   1.000
    H28     H    0.34709   0.66741   0.97750   1.000
    H29     H    0.67919   0.11020   0.25526   1.000
    H30     H    0.51503   0.93795   0.35506   1.000
    H31     H    0.58122   0.96465   0.49752   1.000
    H32     H    0.82156   0.12226   0.52302   1.000
    H33     H    0.76932   0.09945   0.38061   1.000
    H34     H    0.44325   0.18836   0.17187   1.000
    H35     H    0.33509   0.06902   0.17255   1.000
    H36     H    0.45651   0.16577   0.42647   1.000
    H37     H    0.56431   0.28551   0.42570   1.000
    H38     H    0.99503   0.61582   0.13011   1.000
    H39     H    0.10817   0.71741   0.38547   1.000
    H40     H    0.99874   0.59930   0.38583   1.000
    H41     H    0.88589   0.49679   0.13027   1.000
    H42     H    0.64212   0.14344   0.11113   1.000
    H43     H    0.54637   0.02587   0.97712   1.000
    H44     H    0.55857   0.22209   0.88423   1.000
    H45     H    0.65289   0.33254   0.02250   1.000
    H46     H    0.32078   0.88975   0.74475   1.000
    H47     H    0.48495   0.06199   0.64495   1.000
    H48     H    0.41876   0.03530   0.50249   1.000
    H49     H    0.17842   0.87769   0.47699   1.000
    H50     H    0.23066   0.90050   0.61900   1.000
    H51     H    0.94322   0.98244   0.17140   1.000
    H52     H    0.83508   0.10253   0.17190   1.000
    H53     H    0.95639   0.26174   0.42586   1.000
    H54     H    0.06432   0.14133   0.42519   1.000
    H55     H    0.49621   0.51399   0.13003   1.000
    H56     H    0.60756   0.66859   0.38570   1.000
    H57     H    0.49772   0.78680   0.38600   1.000
    H58     H    0.38689   0.63305   0.13010   1.000
    H59     H    0.14382   0.96767   0.11211   1.000
    H60     H    0.04809   0.95179   0.97869   1.000
    H61     H    0.05740   0.66145   0.88411   1.000
    H62     H    0.15180   0.68883   0.02195   1.000
    H63     H    0.82193   0.85633   0.74668   1.000
    H64     H    0.98466   0.58273   0.64510   1.000
    H65     H    0.91851   0.46717   0.50220   1.000
    H66     H    0.67964   0.60114   0.47738   1.000
    H67     H    0.73186   0.72062   0.62024   1.000
    C68     C    0.16834   0.73510   0.70309   1.000
    C69     C    0.91593   0.01040   0.70530   1.000
    C70     C    0.98933   0.94461   0.70198   1.000
    C71     C    0.05558   0.95664   0.77305   1.000
    C72     C    0.11523   0.89008   0.77272   1.000
    C73     C    0.10985   0.81019   0.70130   1.000
    C74     C    0.04672   0.80011   0.62941   1.000
    C75     C    0.98690   0.86680   0.62973   1.000
    C76     C    0.38000   0.48915   0.74073   1.000
    C77     C    0.44200   0.41607   0.74206   1.000
    C78     C    0.50329   0.42538   0.81438   1.000
    C79     C    0.44079   0.33842   0.67002   1.000
    C80     C    0.63301   0.21365   0.73974   1.000
    C81     C    0.56368   0.28235   0.74195   1.000
    C82     C    0.50115   0.27249   0.66990   1.000
    C83     C    0.56353   0.35907   0.81430   1.000
    C84     C    0.87683   0.09876   0.93975   1.000
    C85     C    0.93063   0.10762   0.01343   1.000
    C86     C    0.95795   0.19509   0.07694   1.000
    C87     C    0.92566   0.27020   0.06646   1.000
    C88     C    0.87226   0.25473   0.99043   1.000
    C89     C    0.10160   0.26969   0.27120   1.000
    C90     C    0.12697   0.18049   0.23093   1.000
    C91     C    0.13661   0.33825   0.35485   1.000
    N92     N    0.29650   0.95547   0.48464   1.000
    N93     N    0.47940   0.05622   0.84896   1.000
    N94     N    0.46597   0.06638   0.78113   1.000
    N95     N    0.42400   0.98598   0.84379   1.000
    C96     C    0.08390   0.41104   0.38927   1.000
    C97     C    0.11962   0.47495   0.46881   1.000
    C98     C    0.25381   0.40003   0.48264   1.000
    C99     C    0.22344   0.33348   0.40331   1.000
    C100    C    0.66836   0.96728   0.70244   1.000
    C101    C    0.41588   0.69447   0.70505   1.000
    C102    C    0.48930   0.75674   0.70152   1.000
    C103    C    0.55556   0.81637   0.77254   1.000
    C104    C    0.61524   0.88250   0.77214   1.000
    C105    C    0.60982   0.89042   0.70070   1.000
    C106    C    0.54667   0.82801   0.62884   1.000
    C107    C    0.48689   0.76166   0.62922   1.000
    C108    C    0.88044   0.25138   0.74082   1.000
    C109    C    0.94235   0.32583   0.74214   1.000
    C110    C    0.00401   0.38905   0.81438   1.000
    C111    C    0.94052   0.33136   0.67020   1.000
    C112    C    0.13289   0.52618   0.73983   1.000
    C113    C    0.06364   0.45965   0.74200   1.000
    C114    C    0.00068   0.39729   0.67000   1.000
    C115    C    0.06415   0.45533   0.81428   1.000
    C116    C    0.37788   0.84179   0.94050   1.000
    C117    C    0.43170   0.90659   0.01445   1.000
    C118    C    0.45829   0.88247   0.07762   1.000
    C119    C    0.42516   0.79678   0.06658   1.000
    C120    C    0.37180   0.73625   0.99032   1.000
    C121    C    0.60206   0.00000   0.27206   1.000
    C122    C    0.62782   0.05089   0.23242   1.000
    C123    C    0.63702   0.01640   0.35544   1.000
    C124    C    0.58394   0.97808   0.38949   1.000
    C125    C    0.61967   0.99340   0.46878   1.000
    C126    C    0.75470   0.08149   0.48300   1.000
    C127    C    0.72434   0.06901   0.40393   1.000
    C128    C    0.33163   0.03269   0.29757   1.000
    C129    C    0.58412   0.30549   0.29490   1.000
    C130    C    0.51069   0.24322   0.29850   1.000
    C131    C    0.44443   0.18359   0.22748   1.000
    C132    C    0.38475   0.11746   0.22788   1.000
    C133    C    0.39017   0.10953   0.29931   1.000
    C134    C    0.45332   0.17194   0.37110   1.000
    C135    C    0.51311   0.23829   0.37080   1.000
    C136    C    0.11955   0.74858   0.25919   1.000
    C137    C    0.05763   0.67413   0.25787   1.000
    C138    C    0.99597   0.61091   0.18563   1.000
    C139    C    0.05946   0.66860   0.32981   1.000
    C140    C    0.86711   0.47377   0.26018   1.000
    C141    C    0.93633   0.54032   0.25799   1.000
    C142    C    0.99931   0.60267   0.32994   1.000
    C143    C    0.93584   0.54462   0.18573   1.000
    C144    C    0.62208   0.15817   0.05952   1.000
    C145    C    0.56827   0.09336   0.98556   1.000
    C146    C    0.54169   0.11749   0.92239   1.000
    C147    C    0.57482   0.20317   0.93343   1.000
    C148    C    0.62818   0.26371   0.00000   1.000
    C149    C    0.39792   0.99831   0.72795   1.000
    C150    C    0.37216   0.94906   0.76759   1.000
    C151    C    0.36296   0.98355   0.64457   1.000
    C152    C    0.41604   0.02187   0.61052   1.000
    C153    C    0.38031   0.00000   0.53123   1.000
    C154    C    0.24528   0.91846   0.51701   1.000
    C155    C    0.27564   0.93094   0.59608   1.000
    C156    C    0.83164   0.26486   0.29692   1.000
    C157    C    0.08405   0.98955   0.29467   1.000
    C158    C    0.00000   0.05535   0.29802   1.000
    C159    C    0.94439   0.04331   0.22696   1.000
    C160    C    0.88475   0.10986   0.22728   1.000
    C161    C    0.89012   0.18975   0.29870   1.000
    C162    C    0.95326   0.19984   0.37060   1.000
    C163    C    0.00000   0.13315   0.37028   1.000
    C164    C    0.61998   0.51081   0.25928   1.000
    C165    C    0.55797   0.58388   0.25795   1.000
    C166    C    0.49670   0.57458   0.18563   1.000
    C167    C    0.55919   0.66153   0.32999   1.000
    C168    C    0.36698   0.78631   0.26027   1.000
    C169    C    0.43630   0.71761   0.25806   1.000
    C170    C    0.49882   0.72745   0.33011   1.000
    C171    C    0.43645   0.64089   0.18571   1.000
    C172    C    0.12315   0.90119   0.06026   1.000
    C173    C    0.06935   0.89233   0.98650   1.000
    C174    C    0.04203   0.80486   0.92307   1.000
    C175    C    0.07433   0.72975   0.93356   1.000
    C176    C    0.12773   0.74522   0.00000   1.000
    C177    C    0.89838   0.73025   0.72881   1.000
    C178    C    0.87301   0.81945   0.76908   1.000
    C179    C    0.86337   0.66170   0.64516   1.000
    C180    C    0.91608   0.58891   0.61074   1.000
    C181    C    0.88036   0.52499   0.53121   1.000
    C182    C    0.74616   0.59992   0.51737   1.000
    C183    C    0.77654   0.66647   0.59670   1.000
    N184    N    0.84932   0.17104   0.92740   1.000
    N185    N    0.20299   0.46988   0.51535   1.000
    N186    N    0.02015   0.20695   0.15015   1.000
    N187    N    0.03384   0.28503   0.21830   1.000
    N188    N    0.07513   0.14143   0.15471   1.000
    N189    N    0.34963   0.75704   0.92760   1.000
    N190    N    0.70348   0.04448   0.51537   1.000
    N191    N    0.52058   0.94373   0.15105   1.000
    N192    N    0.53401   0.93357   0.21888   1.000
    N193    N    0.57597   0.01398   0.15622   1.000
    N194    N    0.65034   0.24292   0.07241   1.000
    N195    N    0.15066   0.82892   0.07261   1.000
    N196    N    0.79699   0.53007   0.48466   1.000
    N197    N    0.97983   0.79300   0.84987   1.000
    N198    N    0.96614   0.71492   0.78164   1.000
    N199    N    0.92485   0.85852   0.84530   1.000
    O200    O    0.16478   0.66627   0.63601   1.000
    O201    O    0.21676   0.74645   0.77229   1.000
    O202    O    0.91104   0.06831   0.77540   1.000
    O203    O    0.86223   0.00075   0.63854   1.000
    O204    O    0.37878   0.55540   0.80817   1.000
    O205    O    0.33361   0.47914   0.67130   1.000
    O206    O    0.68394   0.22105   0.80695   1.000
    O207    O    0.63654   0.15321   0.67013   1.000
    O208    O    0.66413   0.96897   0.63540   1.000
    O209    O    0.71747   0.02526   0.77155   1.000
    O210    O    0.41048   0.70795   0.77521   1.000
    O211    O    0.36271   0.63612   0.63834   1.000
    O212    O    0.87860   0.25347   0.80830   1.000
    O213    O    0.83477   0.19109   0.67143   1.000
    O214    O    0.18420   0.58609   0.80704   1.000
    O215    O    0.13596   0.51697   0.67027   1.000
    O216    O    0.33586   0.03099   0.36456   1.000
    O217    O    0.28252   0.97469   0.22846   1.000
    O218    O    0.58952   0.29202   0.22480   1.000
    O219    O    0.63729   0.36383   0.36168   1.000
    O220    O    0.12139   0.74649   0.19172   1.000
    O221    O    0.16521   0.80888   0.32850   1.000
    O222    O    0.81579   0.41386   0.19297   1.000
    O223    O    0.86402   0.48300   0.32975   1.000
    O224    O    0.83522   0.33369   0.36000   1.000
    O225    O    0.78321   0.25350   0.22771   1.000
    O226    O    0.08895   0.93165   0.22461   1.000
    O227    O    0.13776   0.99921   0.36140   1.000
    O228    O    0.62122   0.44456   0.19184   1.000
    O229    O    0.66635   0.52081   0.32863   1.000
    O230    O    0.31604   0.77890   0.19306   1.000
    O231    O    0.36345   0.84675   0.32987   1.000
loop_
    _geom_bond_atom_site_label_1
    _geom_bond_atom_site_label_2
    _geom_bond_distance
    _geom_bond_site_symmetry_2
    _ccdc_geom_bond_type
    C148   H45       1.04890      .   S
    C148   N194      1.52443      .   S
    C148   C147      1.28496  1_554   S
    C176   H62       1.19387      .   S
    C176   N195      1.43051      .   S
    C176   C175      1.24009  1_554   S
    C85    H9        1.08544      .   S
    C85    C86       1.39768      .   S
    C85    C84       1.38588  1_554   S
    C117   H26       1.08542      .   S
    C117   C118      1.39764      .   S
    C117   C116      1.38574  1_554   S
    C144   N194      1.35064      .   S
    C144   H42       1.08791      .   S
    C144   C145      1.38584  1_554   S
    C172   N195      1.35066      .   S
    C172   H59       1.08793      .   S
    C172   C173      1.38715  1_554   S
    C87    C86       1.39747      .   S
    C87    H10       1.08638      .   S
    C87    C88       1.38847  1_554   S
    C119   C118      1.39749      .   S
    C119   H27       1.08647      .   S
    C119   C120      1.38843  1_554   S
    C86    N186      1.40878  1_655   S
    C118   N191      1.40867      .   S
    H55    C166      1.08926      .   S
    H58    C171      1.09010      .   S
    H38    C138      1.08918      .   S
    H41    C143      1.08952      .   S
    N186   N188      1.35866      .   S
    N186   N187      1.34128      .   S
    N191   N193      1.35891  1_565   S
    N191   N192      1.34216      .   S
    N188   C90       1.33227      .   S
    N193   C122      1.33220      .   S
    H51    C159      1.08906  1_565   S
    H34    C131      1.08898      .   S
    H52    C160      1.08997      .   S
    H35    C132      1.08938      .   S
    C138   C143      1.39319      .   S
    C138   C137      1.40256  1_655   S
    C166   C171      1.39327      .   S
    C166   C165      1.40271      .   S
    C171   C169      1.40300      .   S
    C143   C141      1.40307      .   S
    O220   C136      1.27297      .   S
    O228   C164      1.27296      .   S
    O222   C140      1.27693      .   S
    O230   C168      1.27711      .   S
    N187   C89       1.34594      .   S
    N192   C121      1.33153  1_565   S
    O226   C157      1.27232      .   S
    O218   C129      1.27142      .   S
    C159   C160      1.39005      .   S
    C159   C158      1.33765  1_655   S
    C160   C161      1.40363      .   S
    C131   C132      1.39002      .   S
    C131   C130      1.40253      .   S
    O225   C156      1.27597      .   S
    C132   C133      1.40360      .   S
    O217   C128      1.27617  1_565   S
    C90    H12       1.08436      .   S
    C90    C89       1.41933      .   S
    C122   H29       1.08432      .   S
    C122   C121      1.44126      .   S
    C137   C136      1.50276      .   S
    C137   C139      1.40272      .   S
    C165   C164      1.50278      .   S
    C165   C167      1.40271      .   S
    C141   C140      1.50083      .   S
    C141   C142      1.40338      .   S
    C169   C168      1.50093      .   S
    C169   C170      1.40343      .   S
    C136   O221      1.27501      .   S
    C164   O229      1.27609      .   S
    C140   O223      1.27360      .   S
    C168   O231      1.27341      .   S
    C89    C91       1.45977      .   S
    C121   C123      1.45161      .   S
    C157   C158      1.61739  1_565   S
    C157   O227      1.27246      .   S
    C129   C130      1.50544      .   S
    C129   O219      1.27405      .   S
    C156   C161      1.50292      .   S
    C156   O224      1.22823      .   S
    C128   C133      1.50333      .   S
    C128   O216      1.27259      .   S
    C158   C163      1.41006      .   S
    C130   C135      1.40308      .   S
    C161   C162      1.40382      .   S
    C133   C134      1.40318      .   S
    C139   C142      1.38913  1_455   S
    C139   H39       1.08847      .   S
    C142   H40       1.08848      .   S
    C167   C170      1.38921      .   S
    C167   H56       1.08818      .   S
    C170   H57       1.08769      .   S
    C91    C96       1.40529      .   S
    C91    C99       1.40408      .   S
    H13    C96       1.08874      .   S
    H30    C124      1.08869      .   S
    C123   C124      1.40554  1_545   S
    C123   C127      1.40409      .   S
    C163   C162      1.28499  1_455   S
    C163   H54       1.18886      .   S
    C162   H53       1.08925      .   S
    C135   C134      1.39286      .   S
    C135   H37       1.08938      .   S
    C134   H36       1.09066      .   S
    H16    C99       1.08978      .   S
    H33    C127      1.08992      .   S
    C96    C97       1.38609      .   S
    C124   C125      1.38596      .   S
    C99    C98       1.38847      .   S
    C127   C126      1.38841      .   S
    C125   H31       1.08989      .   S
    C125   N190      1.35100  1_565   S
    C97    H14       1.08962      .   S
    C97    N185      1.35102      .   S
    H49    C154      1.08930      .   S
    H66    C182      1.08934      .   S
    C98    N185      1.34950      .   S
    C98    H15       1.08934      .   S
    C126   N190      1.34949      .   S
    C126   H32       1.08930      .   S
    N92    C154      1.34952      .   S
    N92    C153      1.31871  1_565   S
    N196   C182      1.34949      .   S
    N196   C181      1.35110      .   S
    H65    C181      1.08969      .   S
    H48    C153      1.16297      .   S
    C154   C155      1.38842      .   S
    C182   C183      1.38848      .   S
    C181   C180      1.38597      .   S
    C153   C152      1.35842      .   S
    H19    C106      1.08929      .   S
    H2     C74       1.08934      .   S
    H20    C107      1.08958      .   S
    H3     C75       1.08938      .   S
    C155   H50       1.08433      .   S
    C155   C151      1.40410      .   S
    C183   H67       1.08981      .   S
    C183   C179      1.40407      .   S
    C152   C151      1.40555  1_545   S
    C152   H47       1.08869      .   S
    C180   H64       1.08848      .   S
    C180   C179      1.40530      .   S
    H6     C82       1.08848      .   S
    H23    C114      1.08715      .   S
    H5     C79       1.08834      .   S
    H22    C111      1.08839      .   S
    C106   C107      1.39356      .   S
    C106   C105      1.40388      .   S
    C107   C102      1.40302      .   S
    C74    C75       1.39328  1_455   S
    C74    C73       1.40367      .   S
    C75    C70       1.40283      .   S
    O208   C100      1.27352      .   S
    O200   C68       1.27265      .   S
    O211   C101      1.27335      .   S
    O203   C69       1.27291      .   S
    C151   C149      1.45962      .   S
    C179   C177      1.45978      .   S
    C82    C79       1.38921      .   S
    C82    C81       1.40346      .   S
    C114   C111      1.38977  1_455   S
    C114   C113      1.40385      .   S
    C79    C77       1.40272      .   S
    O207   C80       1.27350      .   S
    C111   C109      1.40274      .   S
    O215   C112      1.27345      .   S
    O205   C76       1.27742      .   S
    O213   C108      1.27591      .   S
    C105   C100      1.50337      .   S
    C105   C104      1.40371      .   S
    C73    C68       1.50298      .   S
    C73    C72       1.40362      .   S
    C102   C101      1.50475      .   S
    C102   C103      1.40252      .   S
    C70    C69       1.50439  1_565   S
    C70    C71       1.40261  1_655   S
    C100   O209      1.27618  1_565   S
    C68    O201      1.27578      .   S
    C101   O210      1.27251      .   S
    C69    O202      1.27288      .   S
    C149   C150      1.41962      .   S
    C149   N94       1.34490  1_565   S
    C177   C178      1.41932      .   S
    C177   N198      1.34505      .   S
    C80    C81       1.50095      .   S
    C80    O206      1.27712      .   S
    C112   C113      1.50065      .   S
    C112   O214      1.27692      .   S
    C76    C77       1.50277      .   S
    C76    O204      1.27296      .   S
    C108   C109      1.50270      .   S
    C108   O212      1.27312      .   S
    C81    C83       1.40303      .   S
    C113   C115      1.40351      .   S
    C77    C78       1.40274      .   S
    C109   C110      1.40256  1_655   S
    H46    C150      1.08432      .   S
    H63    C178      1.08436      .   S
    C150   N95       1.33218      .   S
    C178   N199      1.33227      .   S
    C104   C103      1.38999      .   S
    C104   H18       1.08930      .   S
    C103   H17       1.08895      .   S
    C72    C71       1.39002      .   S
    C72    H1        1.08939      .   S
    C71    H0        1.08906  1_565   S
    N94    N93       1.34215      .   S
    N198   N197      1.34208      .   S
    C115   C110      1.39321      .   S
    C115   H24       1.08950      .   S
    C83    C78       1.39328      .   S
    C83    H7        1.08848      .   S
    C78    H4        1.08927      .   S
    C110   H21       1.08921      .   S
    N95    N93       1.35891  1_565   S
    N199   N197      1.35872      .   S
    N93    C146      1.40866      .   S
    N197   C174      1.40862  1_655   S
    H61    C175      1.08645      .   S
    H44    C147      1.08645      .   S
    H8     C84       1.08794      .   S
    H25    C116      1.08809      .   S
    C146   C147      1.39748      .   S
    C146   C145      1.39760      .   S
    C174   C175      1.39755      .   S
    C174   C173      1.39715      .   S
    N184   C84       1.35065      .   S
    N184   C88       1.35003      .   S
    N189   C116      1.35060      .   S
    N189   C120      1.35020      .   S
    H43    C145      1.08542      .   S
    H28    C120      1.08966      .   S
    H11    C88       1.08990      .   S
    H60    C173      1.08473      .   S
