# CIF file generated by openbabel 2.4.90, see http://openbabel.sf.net
data_I
_chemical_name_common ''
_cell_length_a 17.236
_cell_length_b 16.946
_cell_length_c 17.853
_cell_angle_alpha 89.935
_cell_angle_beta 90.001
_cell_angle_gamma 89.182
_space_group_name_H-M_alt 'P 1'
_space_group_name_Hall 'P 1'
loop_
    _symmetry_equiv_pos_as_xyz
    x,y,z
loop_
    _atom_site_label
    _atom_site_type_symbol
    _atom_site_fract_x
    _atom_site_fract_y
    _atom_site_fract_z
    _atom_site_occupancy
    Zr0     Zr   0.26287   0.88289   0.62700   1.000
    Zr1     Zr   0.76617   0.62000   0.37241   1.000
    Zr2     Zr   0.76299   0.38314   0.87221   1.000
    Zr3     Zr   0.26617   0.11977   0.12743   1.000
    Zr4     Zr   0.23702   0.61688   0.12777   1.000
    Zr5     Zr   0.73383   0.88025   0.87256   1.000
    Zr6     Zr   0.73696   0.11712   0.37208   1.000
    Zr7     Zr   0.23376   0.38005   0.62762   1.000
    Zr8     Zr   0.10186   0.87660   0.58920   1.000
    Zr9     Zr   0.86142   0.75485   0.39374   1.000
    Zr10    Zr   0.60562   0.62605   0.41220   1.000
    Zr11    Zr   0.36097   0.74584   0.60840   1.000
    Zr12    Zr   0.60195   0.37659   0.91074   1.000
    Zr13    Zr   0.36150   0.25470   0.10637   1.000
    Zr14    Zr   0.10559   0.12492   0.08739   1.000
    Zr15    Zr   0.86163   0.24785   0.89217   1.000
    Zr16    Zr   0.39805   0.62343   0.08924   1.000
    Zr17    Zr   0.63851   0.74531   0.89361   1.000
    Zr18    Zr   0.89442   0.87509   0.91258   1.000
    Zr19    Zr   0.13839   0.75218   0.10781   1.000
    Zr20    Zr   0.89802   0.12345   0.41074   1.000
    Zr21    Zr   0.13847   0.24524   0.60621   1.000
    Zr22    Zr   0.39430   0.37374   0.58792   1.000
    Zr23    Zr   0.63855   0.25353   0.39169   1.000
    Zr24    Zr   0.16380   0.83340   0.59681   1.000
    Zr25    Zr   0.09016   0.94327   0.61912   1.000
    Zr26    Zr   0.86027   0.67763   0.39054   1.000
    Zr27    Zr   0.81247   0.80034   0.36500   1.000
    Zr28    Zr   0.66581   0.66985   0.40361   1.000
    Zr29    Zr   0.59630   0.55899   0.38300   1.000
    Zr30    Zr   0.35776   0.82308   0.61175   1.000
    Zr31    Zr   0.31347   0.70020   0.63710   1.000
    Zr32    Zr   0.66392   0.33344   0.90318   1.000
    Zr33    Zr   0.59017   0.44328   0.88078   1.000
    Zr34    Zr   0.36021   0.17747   0.10947   1.000
    Zr35    Zr   0.31263   0.30016   0.13517   1.000
    Zr36    Zr   0.16554   0.16896   0.09654   1.000
    Zr37    Zr   0.09650   0.05748   0.11611   1.000
    Zr38    Zr   0.85880   0.32515   0.88995   1.000
    Zr39    Zr   0.81374   0.20314   0.86284   1.000
    Zr40    Zr   0.33609   0.66658   0.09679   1.000
    Zr41    Zr   0.40983   0.55674   0.11920   1.000
    Zr42    Zr   0.63979   0.82254   0.89050   1.000
    Zr43    Zr   0.68739   0.69985   0.86482   1.000
    Zr44    Zr   0.83447   0.83105   0.90343   1.000
    Zr45    Zr   0.90351   0.94254   0.88386   1.000
    Zr46    Zr   0.14120   0.67488   0.11005   1.000
    Zr47    Zr   0.18628   0.79689   0.13712   1.000
    Zr48    Zr   0.83604   0.16661   0.40316   1.000
    Zr49    Zr   0.90980   0.05681   0.38083   1.000
    Zr50    Zr   0.13967   0.32245   0.60941   1.000
    Zr51    Zr   0.18739   0.19972   0.63497   1.000
    Zr52    Zr   0.33401   0.33008   0.59600   1.000
    Zr53    Zr   0.40378   0.44073   0.61730   1.000
    Zr54    Zr   0.64148   0.17629   0.38804   1.000
    Zr55    Zr   0.68632   0.29909   0.36329   1.000
    O56     O    0.13557   0.14694   0.09197   1.000
    O57     O    0.10105   0.09120   0.10175   1.000
    O58     O    0.36707   0.64501   0.09302   1.000
    O59     O    0.40394   0.59009   0.10422   1.000
    O60     O    0.21586   0.14436   0.11199   1.000
    O61     O    0.28655   0.64173   0.11228   1.000
    O62     O    0.36086   0.21608   0.10792   1.000
    O63     O    0.33706   0.27743   0.12077   1.000
    O64     O    0.13979   0.71353   0.10893   1.000
    O65     O    0.16233   0.77454   0.12247   1.000
    O66     O    0.31319   0.14862   0.11845   1.000
    O67     O    0.18911   0.64588   0.11891   1.000
    O68     O    0.66243   0.27631   0.37749   1.000
    O69     O    0.83695   0.77759   0.37937   1.000
    O70     O    0.68922   0.14670   0.38006   1.000
    O71     O    0.78650   0.14186   0.38762   1.000
    O72     O    0.81322   0.64882   0.38148   1.000
    O73     O    0.71599   0.64492   0.38801   1.000
    O74     O    0.90391   0.09013   0.39579   1.000
    O75     O    0.60096   0.59252   0.39760   1.000
    O76     O    0.64002   0.21491   0.38987   1.000
    O77     O    0.86084   0.71624   0.39214   1.000
    O78     O    0.86703   0.14503   0.40695   1.000
    O79     O    0.63572   0.64795   0.40791   1.000
    O80     O    0.36416   0.35191   0.59196   1.000
    O81     O    0.39904   0.40723   0.60261   1.000
    O82     O    0.13283   0.85500   0.59301   1.000
    O83     O    0.09601   0.90993   0.60416   1.000
    O84     O    0.28389   0.35507   0.61181   1.000
    O85     O    0.21333   0.85814   0.61191   1.000
    O86     O    0.13907   0.28384   0.60781   1.000
    O87     O    0.16293   0.22248   0.62059   1.000
    O88     O    0.35937   0.78446   0.61008   1.000
    O89     O    0.33722   0.72302   0.62275   1.000
    O90     O    0.18671   0.35125   0.61852   1.000
    O91     O    0.31032   0.85298   0.61938   1.000
    O92     O    0.83768   0.22550   0.87751   1.000
    O93     O    0.66295   0.72258   0.87922   1.000
    O94     O    0.81090   0.35415   0.88108   1.000
    O95     O    0.71345   0.35829   0.88770   1.000
    O96     O    0.68681   0.85139   0.88153   1.000
    O97     O    0.78415   0.85565   0.88800   1.000
    O98     O    0.59606   0.40993   0.89576   1.000
    O99     O    0.89896   0.90881   0.89822   1.000
    O100    O    0.86022   0.28650   0.89106   1.000
    O101    O    0.63915   0.78392   0.89206   1.000
    O102    O    0.63294   0.35501   0.90696   1.000
    O103    O    0.86444   0.85307   0.90801   1.000
    N104    N    0.74496   0.52981   0.11156   1.000
    O105    O    0.75528   0.47767   0.01291   1.000
    O106    O    0.75204   0.56181   0.21719   1.000
    N107    N    0.24324   0.97142   0.88939   1.000
    O108    O    0.24918   0.93982   0.78338   1.000
    O109    O    0.25615   0.02424   0.98734   1.000
    N110    N    0.74315   0.47163   0.61055   1.000
    O111    O    0.75601   0.52444   0.51253   1.000
    O112    O    0.74917   0.44006   0.71640   1.000
    N113    N    0.75497   0.97080   0.61175   1.000
    O114    O    0.74792   0.93878   0.71739   1.000
    O115    O    0.74455   0.02280   0.51298   1.000
    N116    N    0.24500   0.02904   0.38821   1.000
    O117    O    0.25540   0.97710   0.48675   1.000
    O118    O    0.25207   0.06115   0.28258   1.000
    N119    N    0.01583   0.18515   0.51043   1.000
    O120    O    0.97219   0.16249   0.47325   1.000
    O121    O    0.06075   0.20739   0.54662   1.000
    N122    N    0.25500   0.47020   0.88841   1.000
    O123    O    0.24790   0.43821   0.78282   1.000
    O124    O    0.24470   0.52234   0.98707   1.000
    N125    N    0.48416   0.31484   0.01056   1.000
    O126    O    0.52780   0.33751   0.97334   1.000
    O127    O    0.43924   0.29258   0.04676   1.000
    N128    N    0.51584   0.68517   0.98540   1.000
    O129    O    0.47221   0.66250   0.02462   1.000
    O130    O    0.56077   0.70743   0.95120   1.000
    N131    N    0.25686   0.52839   0.38944   1.000
    O132    O    0.24400   0.47560   0.48748   1.000
    O133    O    0.25083   0.55996   0.28359   1.000
    N134    N    0.75677   0.02856   0.11055   1.000
    O135    O    0.74386   0.97575   0.01262   1.000
    O136    O    0.75077   0.06018   0.21635   1.000
    N137    N    0.48570   0.68655   0.51235   1.000
    O138    O    0.43998   0.70845   0.54862   1.000
    O139    O    0.53015   0.66434   0.47506   1.000
    N140    N    0.98404   0.81494   0.48953   1.000
    O141    O    0.93913   0.79270   0.45334   1.000
    O142    O    0.02768   0.83759   0.52669   1.000
    N143    N    0.51403   0.31301   0.48780   1.000
    O144    O    0.55966   0.29103   0.45150   1.000
    O145    O    0.46965   0.33530   0.52509   1.000
    N146    N    0.98593   0.18671   0.98361   1.000
    O147    O    0.94037   0.20926   0.94954   1.000
    O148    O    0.03027   0.16399   0.02278   1.000
    N149    N    0.01408   0.81331   0.01232   1.000
    O150    O    0.05964   0.79076   0.04841   1.000
    O151    O    0.96974   0.83603   0.97517   1.000
loop_
    _geom_bond_atom_site_label_1
    _geom_bond_atom_site_label_2
    _geom_bond_distance
    _geom_bond_site_symmetry_2
    _ccdc_geom_bond_type
    Zr14   O56       0.64684      .   S
    Zr36   O56       0.64684      .   S
    Zr14   O57       0.63195      .   S
    Zr37   O57       0.63195      .   S
    Zr16   O58       0.64642      .   S
    Zr40   O58       0.64642      .   S
    Zr16   O59       0.63177      .   S
    Zr41   O59       0.63177      .   S
    Zr36   O60       0.99563      .   S
    Zr3    O60       0.99563      .   S
    Zr40   O61       0.99640      .   S
    Zr4    O61       0.99640      .   S
    Zr13   O62       0.65519      .   S
    Zr34   O62       0.65519      .   S
    Zr13   O63       0.62246      .   S
    Zr35   O63       0.62246      .   S
    Zr19   O64       0.65537      .   S
    Zr46   O64       0.65537      .   S
    Zr19   O65       0.62211      .   S
    Zr47   O65       0.62211      .   S
    Zr34   O66       0.96574      .   S
    Zr3    O66       0.96574      .   S
    Zr46   O67       0.96776      .   S
    Zr4    O67       0.96776      .   S
    Zr55   O68       0.62216      .   S
    Zr23   O68       0.62216      .   S
    Zr27   O69       0.62247      .   S
    Zr9    O69       0.62247      .   S
    Zr6    O70       0.96806      .   S
    Zr54   O70       0.96806      .   S
    Zr6    O71       0.99622      .   S
    Zr48   O71       0.99622      .   S
    Zr1    O72       0.96631      .   S
    Zr26   O72       0.96631      .   S
    Zr1    O73       0.99690      .   S
    Zr28   O73       0.99690      .   S
    Zr49   O74       0.63177      .   S
    Zr20   O74       0.63177      .   S
    Zr29   O75       0.63159      .   S
    Zr10   O75       0.63159      .   S
    Zr54   O76       0.65540      .   S
    Zr23   O76       0.65540      .   S
    Zr26   O77       0.65513      .   S
    Zr9    O77       0.65513      .   S
    Zr48   O78       0.64647      .   S
    Zr20   O78       0.64647      .   S
    Zr28   O79       0.64656      .   S
    Zr10   O79       0.64656      .   S
    Zr22   O80       0.64610      .   S
    Zr52   O80       0.64610      .   S
    Zr22   O81       0.63191      .   S
    Zr53   O81       0.63191      .   S
    Zr8    O82       0.64647      .   S
    Zr24   O82       0.64647      .   S
    Zr8    O83       0.63188      .   S
    Zr25   O83       0.63188      .   S
    Zr52   O84       0.99762      .   S
    Zr7    O84       0.99762      .   S
    Zr24   O85       0.99393      .   S
    Zr0    O85       0.99393      .   S
    Zr21   O86       0.65514      .   S
    Zr50   O86       0.65514      .   S
    Zr21   O87       0.62249      .   S
    Zr51   O87       0.62249      .   S
    Zr11   O88       0.65536      .   S
    Zr30   O88       0.65536      .   S
    Zr11   O89       0.62209      .   S
    Zr31   O89       0.62209      .   S
    Zr50   O90       0.96625      .   S
    Zr7    O90       0.96625      .   S
    Zr30   O91       0.96567      .   S
    Zr0    O91       0.96567      .   S
    Zr39   O92       0.62214      .   S
    Zr15   O92       0.62214      .   S
    Zr43   O93       0.62247      .   S
    Zr17   O93       0.62247      .   S
    Zr2    O94       0.96775      .   S
    Zr38   O94       0.96775      .   S
    Zr2    O95       0.99641      .   S
    Zr32   O95       0.99641      .   S
    Zr5    O96       0.96575      .   S
    Zr42   O96       0.96575      .   S
    Zr5    O97       0.99564      .   S
    Zr44   O97       0.99564      .   S
    Zr33   O98       0.63179      .   S
    Zr12   O98       0.63179      .   S
    Zr45   O99       0.63195      .   S
    Zr18   O99       0.63195      .   S
    Zr38   O100      0.65537      .   S
    Zr15   O100      0.65537      .   S
    Zr42   O101      0.65518      .   S
    Zr17   O101      0.65518      .   S
    Zr32   O102      0.64643      .   S
    Zr12   O102      0.64643      .   S
    Zr44   O103      0.64684      .   S
    Zr18   O103      0.64684      .   S
    N104   O105      1.97812      .   S
    Zr2    O105      2.98272  1_556   S
    N104   O106      1.96704      .   S
    Zr1    O106      2.95368      .   S
    N107   O108      1.96970      .   S
    Zr0    O108      2.96322      .   S
    N107   O109      1.97943  1_565   S
    Zr3    O109      2.98701  1_554   S
    N110   O111      1.97849      .   S
    Zr1    O111      2.98490      .   S
    N110   O112      1.96572      .   S
    Zr2    O112      2.95167      .   S
    N113   O114      1.96626      .   S
    Zr5    O114      2.95250      .   S
    N113   O115      1.97734  1_565   S
    Zr6    O115      2.98065      .   S
    N116   O117      1.97335  1_545   S
    Zr0    O117      2.96976      .   S
    N116   O118      1.96633      .   S
    Zr3    O118      2.95278      .   S
    N119   O120      1.07820  1_455   S
    Zr20   O120      1.82840      .   S
    N119   O121      1.08061      .   S
    Zr21   O121      1.83404      .   S
    N122   O123      1.96650      .   S
    Zr7    O123      2.95305      .   S
    N122   O124      1.97834      .   S
    Zr4    O124      2.98274  1_554   S
    N125   O126      1.07812  1_554   S
    Zr12   O126      1.82864      .   S
    N125   O127      1.08050      .   S
    Zr13   O127      1.83383      .   S
    N128   O129      1.10059  1_556   S
    Zr16   O129      1.85082      .   S
    N128   O130      1.05942      .   S
    Zr17   O130      1.81322      .   S
    N131   O132      1.97869      .   S
    Zr7    O132      2.98524      .   S
    N131   O133      1.96576      .   S
    Zr4    O133      2.95174      .   S
    N134   O135      1.97900  1_545   S
    Zr5    O135      2.98639  1_556   S
    N134   O136      1.96619      .   S
    Zr6    O136      2.95250      .   S
    N137   O138      1.08174      .   S
    Zr11   O138      1.83629      .   S
    N137   O139      1.07903      .   S
    Zr10   O139      1.83034      .   S
    N140   O141      1.08056      .   S
    Zr9    O141      1.83401      .   S
    N140   O142      1.07792  1_655   S
    Zr8    O142      1.82837      .   S
    N143   O144      1.08140      .   S
    Zr23   O144      1.83574      .   S
    N143   O145      1.07862      .   S
    Zr22   O145      1.82935      .   S
    N146   O147      1.05991      .   S
    Zr15   O147      1.81436      .   S
    N146   O148      1.10111  1_656   S
    Zr14   O148      1.85146      .   S
    N149   O150      1.08104      .   S
    Zr19   O150      1.83497      .   S
    N149   O151      1.07855  1_454   S
    Zr18   O151      1.82920      .   S
