# CIF file generated by openbabel 2.4.90, see http://openbabel.sf.net
data_I
_chemical_name_common ''
_cell_length_a 19.145
_cell_length_b 19.199
_cell_length_c 17.42
_cell_angle_alpha 95.567
_cell_angle_beta 105.607
_cell_angle_gamma 90.234
_space_group_name_H-M_alt 'P 1'
_space_group_name_Hall 'P 1'
loop_
    _symmetry_equiv_pos_as_xyz
    x,y,z
loop_
    _atom_site_label
    _atom_site_type_symbol
    _atom_site_fract_x
    _atom_site_fract_y
    _atom_site_fract_z
    _atom_site_occupancy
    Lv0     Lv   0.85893   0.37118   0.99754   1.000
    Lv1     Lv   0.14092   0.12193   0.99999   1.000
    Lv2     Lv   0.36103   0.37187   0.99987   1.000
    Lv3     Lv   0.35826   0.87308   0.00098   1.000
    Lv4     Lv   0.85897   0.87042   0.99779   1.000
    Lv5     Lv   0.64098   0.62062   0.99726   1.000
    Lv6     Lv   0.14076   0.63102   0.99645   1.000
    Lv7     Lv   0.64099   0.11958   0.99757   1.000
