# CIF file generated by openbabel 2.4.90, see http://openbabel.sf.net
data_I
_chemical_name_common ''
_cell_length_a 3.9555
_cell_length_b 8.1165
_cell_length_c 26.6393
_cell_angle_alpha 90.0007
_cell_angle_beta 93.2013
_cell_angle_gamma 90.002
_space_group_name_H-M_alt 'P 1'
_space_group_name_Hall 'P 1'
loop_
    _symmetry_equiv_pos_as_xyz
    x,y,z
loop_
    _atom_site_label
    _atom_site_type_symbol
    _atom_site_fract_x
    _atom_site_fract_y
    _atom_site_fract_z
    _atom_site_occupancy
    K0      K    0.66612   0.77474   0.72435   1.000
    K1      K    0.16612   0.72525   0.22435   1.000
    K2      K    0.33346   0.22656   0.27552   1.000
    H3      H    0.29606   0.57632   0.82186   1.000
    H4      H    0.36000   0.45753   0.86762   1.000
    H5      H    0.19814   0.07650   0.67782   1.000
    H6      H    0.13260   0.95735   0.63218   1.000
    H7      H    0.69816   0.42349   0.17781   1.000
    H8      H    0.63261   0.54268   0.13217   1.000
    H9      H    0.79608   0.92372   0.32186   1.000
    H10     H    0.86010   0.04250   0.36761   1.000
    C11     C    0.23123   0.40563   0.67925   1.000
    K12     K    0.83344   0.27344   0.77553   1.000
    C13     C    0.26958   0.90566   0.82061   1.000
    C14     C    0.76960   0.59436   0.32061   1.000
    C15     C    0.73124   0.09437   0.17924   1.000
    O16     O    0.28765   0.26438   0.69969   1.000
    O17     O    0.10896   0.52744   0.70181   1.000
    O18     O    0.35615   0.45917   0.83111   1.000
    O19     O    0.20762   0.76500   0.80007   1.000
    O20     O    0.39722   0.02640   0.79821   1.000
    O21     O    0.13746   0.95929   0.66869   1.000
    O22     O    0.70764   0.73501   0.30008   1.000
    O23     O    0.89726   0.47359   0.29821   1.000
    O24     O    0.63748   0.54073   0.16868   1.000
    O25     O    0.78769   0.23563   0.19968   1.000
    O26     O    0.60898   0.97259   0.20181   1.000
    O27     O    0.85616   0.04085   0.33110   1.000
    Og28    Og   0.26093   0.41297   0.66128   1.000
    Og29    Og   0.23980   0.91314   0.83856   1.000
    Og30    Og   0.73983   0.58687   0.33857   1.000
    Og31    Og   0.76095   0.08703   0.16128   1.000
loop_
    _geom_bond_atom_site_label_1
    _geom_bond_atom_site_label_2
    _geom_bond_distance
    _geom_bond_site_symmetry_2
    _ccdc_geom_bond_type
    H8     O24       0.97198      .   S
    O24    H7        1.00783      .   S
    C15    O25       1.28349      .   S
    C15    O26       1.26671  1_545   S
    O26    K1        2.75254      .   S
    K2     O23       2.73475  1_455   S
    O23    C14       1.26717      .   S
    O22    C14       1.28357      .   S
    H9     O27       1.00721  1_565   S
    O27    H10       0.97195      .   S
    H6     O21       0.97198      .   S
    O21    H5        1.00759  1_565   S
    C11    O16       1.28349      .   S
    C11    O17       1.26692      .   S
    O17    K0        2.75234  1_455   S
    K12    O20       2.73475      .   S
    O20    C13       1.26686  1_545   S
    O19    C13       1.28357      .   S
    H3     O18       1.00742      .   S
    O18    H4        0.97196      .   S
    O16    K12       2.77857  1_455   S
    O17    K12       3.08769  1_455   S
    O18    K12       2.88810      .   S
    O19    K0        2.78808      .   S
    O20    K0        3.06744  1_545   S
    O21    K0        2.86824  1_455   S
    O22    K1        2.78820  1_655   S
    O23    K1        3.06727  1_655   S
    O24    K1        2.86836      .   S
    O25    K2        2.77856      .   S
    O26    K2        3.08743  1_565   S
    O27    K2        2.88810  1_655   S
    C11    Og28      0.50271      .   S
    C13    Og29      0.50262      .   S
    C14    Og30      0.50262      .   S
    C15    Og31      0.50271      .   S
