# CIF file generated by openbabel 2.4.90, see http://openbabel.sf.net
data_I
_chemical_name_common ''
_cell_length_a 22.353
_cell_length_b 16.76
_cell_length_c 18.262
_cell_angle_alpha 62.678
_cell_angle_beta 72.41
_cell_angle_gamma 90.054
_space_group_name_H-M_alt 'P 1'
_space_group_name_Hall 'P 1'
loop_
    _symmetry_equiv_pos_as_xyz
    x,y,z
loop_
    _atom_site_label
    _atom_site_type_symbol
    _atom_site_fract_x
    _atom_site_fract_y
    _atom_site_fract_z
    _atom_site_occupancy
    N0      N    0.72338   0.95435   0.85173   1.000
    N1      N    0.60333   0.50640   0.56181   1.000
    N2      N    0.89545   0.06763   0.43904   1.000
    N3      N    0.85099   0.45467   0.85133   1.000
    N4      N    0.35151   0.45467   0.85139   1.000
    N5      N    0.39625   0.06804   0.43871   1.000
    N6      N    0.14879   0.30538   0.14896   1.000
    N7      N    0.64848   0.30516   0.14919   1.000
    N8      N    0.10385   0.50661   0.56176   1.000
    N9      N    0.38429   0.56821   0.43881   1.000
    N10     N    0.88432   0.56814   0.43875   1.000
    N11     N    0.22370   0.95466   0.85147   1.000
    N12     N    0.27633   0.80586   0.14936   1.000
    N13     N    0.77629   0.80571   0.14942   1.000
    N14     N    0.11512   0.00649   0.56198   1.000
    N15     N    0.61520   0.00658   0.56226   1.000
    Zr16    Zr   0.87941   0.12589   0.84090   1.000
    O17     O    0.84882   0.03348   0.93252   1.000
    O18     O    0.87214   0.22199   0.84538   1.000
    O19     O    0.83396   0.08867   0.83307   1.000
    O20     O    0.94901   0.09628   0.76189   1.000
    Zr21    Zr   0.61440   0.93572   0.35319   1.000
    O22     O    0.54735   0.83265   0.37685   1.000
    O23     O    0.62345   0.96147   0.40789   1.000
    O24     O    0.61045   0.94647   0.42291   1.000
    O25     O    0.61941   0.04346   0.29400   1.000
    O26     O    0.66205   0.90214   0.28867   1.000
    Zr27    Zr   0.37958   0.12592   0.84090   1.000
    O28     O    0.33416   0.08880   0.83301   1.000
    O29     O    0.44917   0.09635   0.76195   1.000
    O30     O    0.34894   0.03354   0.93250   1.000
    O31     O    0.37240   0.22199   0.84541   1.000
    Zr32    Zr   0.70095   0.62559   0.84059   1.000
    O33     O    0.68542   0.53306   0.93219   1.000
    O34     O    0.75009   0.58857   0.83266   1.000
    O35     O    0.67041   0.59607   0.76162   1.000
    O36     O    0.70582   0.72165   0.84531   1.000
    Zr37    Zr   0.11440   0.93598   0.35299   1.000
    O38     O    0.04737   0.83282   0.37669   1.000
    O39     O    0.11948   0.04370   0.29381   1.000
    O40     O    0.16206   0.90237   0.28850   1.000
    O41     O    0.12344   0.96161   0.40769   1.000
    O42     O    0.11043   0.94663   0.42270   1.000
    Zr43    Zr   0.88541   0.28868   0.64792   1.000
    O44     O    0.88031   0.33745   0.70689   1.000
    O45     O    0.87626   0.36917   0.59319   1.000
    O46     O    0.88927   0.36903   0.57816   1.000
    O47     O    0.83772   0.19041   0.71246   1.000
    O48     O    0.95233   0.20920   0.62417   1.000
    Zr49    Zr   0.62032   0.96555   0.16020   1.000
    O50     O    0.55062   0.85719   0.23913   1.000
    O51     O    0.62751   0.06625   0.15552   1.000
    O52     O    0.66576   0.92078   0.16805   1.000
    O53     O    0.65091   0.96489   0.06860   1.000
    Zr54    Zr   0.38544   0.28882   0.64780   1.000
    O55     O    0.33783   0.19061   0.71233   1.000
    O56     O    0.38928   0.36915   0.57811   1.000
    O57     O    0.37628   0.36929   0.59313   1.000
    O58     O    0.45238   0.20932   0.62417   1.000
    O59     O    0.38047   0.33752   0.70686   1.000
    Zr60    Zr   0.29147   0.78932   0.64707   1.000
    O61     O    0.26705   0.83786   0.70637   1.000
    O62     O    0.23614   0.70977   0.62346   1.000
    O63     O    0.30696   0.69099   0.71172   1.000
    O64     O    0.32220   0.86945   0.57755   1.000
    O65     O    0.32776   0.86957   0.59260   1.000
    Zr66    Zr   0.78974   0.78889   0.64776   1.000
    O67     O    0.82629   0.86916   0.59320   1.000
    O68     O    0.82077   0.86903   0.57812   1.000
    O69     O    0.80558   0.69063   0.71214   1.000
    O70     O    0.73478   0.70937   0.62399   1.000
    O71     O    0.76567   0.83747   0.70694   1.000
    Zr72    Zr   0.12031   0.96581   0.16006   1.000
    O73     O    0.05063   0.85734   0.23901   1.000
    O74     O    0.12757   0.06650   0.15537   1.000
    O75     O    0.15098   0.96514   0.06843   1.000
    O76     O    0.16576   0.92101   0.16792   1.000
    Zr77    Zr   0.29865   0.46637   0.16006   1.000
    O78     O    0.24954   0.42119   0.16783   1.000
    O79     O    0.29384   0.56702   0.15548   1.000
    O80     O    0.31439   0.46550   0.06842   1.000
    O81     O    0.32908   0.35773   0.23909   1.000
    Zr82    Zr   0.79725   0.46581   0.16043   1.000
    O83     O    0.74847   0.42077   0.16820   1.000
    O84     O    0.82792   0.35721   0.23937   1.000
    O85     O    0.81322   0.46512   0.06866   1.000
    O86     O    0.79290   0.56659   0.15574   1.000
    Zr87    Zr   0.20847   0.43552   0.35344   1.000
    O88     O    0.19318   0.40191   0.28869   1.000
    O89     O    0.23293   0.54356   0.29422   1.000
    O90     O    0.17777   0.44632   0.42297   1.000
    O91     O    0.17225   0.46151   0.40788   1.000
    O92     O    0.26386   0.33257   0.37707   1.000
    Zr93    Zr   0.70843   0.43566   0.35355   1.000
    O94     O    0.69296   0.40193   0.28890   1.000
    O95     O    0.73288   0.54360   0.29430   1.000
    O96     O    0.76362   0.33257   0.37720   1.000
    O97     O    0.67208   0.46155   0.40795   1.000
    O98     O    0.67760   0.44638   0.42304   1.000
    Zr99    Zr   0.20265   0.62603   0.84003   1.000
    O100    O    0.20701   0.72205   0.84483   1.000
    O101    O    0.18665   0.53342   0.93173   1.000
    O102    O    0.17181   0.59642   0.76119   1.000
    O103    O    0.25145   0.58894   0.83232   1.000
loop_
    _geom_bond_atom_site_label_1
    _geom_bond_atom_site_label_2
    _geom_bond_distance
    _geom_bond_site_symmetry_2
    _ccdc_geom_bond_type
    Zr16   O17       1.61047      .   S
    N13    O17       3.88811  1_564   S
    Zr16   O18       1.65543      .   S
    N3     O18       3.97552      .   S
    Zr16   O19       1.26889      .   S
    N0     O19       3.17337  1_565   S
    Zr16   O20       2.01281      .   S
    N14    O20       5.12247  1_455   S
    Zr21   O22       2.08215      .   S
    N9     O22       5.20409      .   S
    Zr21   O23       1.32020      .   S
    N15    O23       3.19294  1_545   S
    Zr21   O24       1.34314      .   S
    N15    O24       3.16520  1_545   S
    Zr21   O25       1.60507  1_565   S
    N7     O25       3.86809      .   S
    Zr21   O26       1.64045      .   S
    N13    O26       3.93120      .   S
    Zr27   O28       1.26805      .   S
    N11    O28       3.17109  1_565   S
    Zr27   O29       2.01145      .   S
    N15    O29       5.11891      .   S
    Zr27   O30       1.61008      .   S
    N12    O30       3.88723  1_564   S
    Zr27   O31       1.65513      .   S
    N4     O31       3.97510      .   S
    Zr32   O33       1.60948      .   S
    N7     O33       3.88539  1_554   S
    Zr32   O34       1.26485      .   S
    N3     O34       3.16399      .   S
    Zr32   O35       2.00997      .   S
    N1     O35       5.11463      .   S
    Zr32   O36       1.65651      .   S
    N0     O36       3.97787      .   S
    Zr37   O38       2.08286      .   S
    N10    O38       5.20599  1_655   S
    Zr37   O39       1.60465  1_565   S
    N6     O39       3.86766      .   S
    Zr37   O40       1.64043      .   S
    N12    O40       3.93127      .   S
    Zr37   O41       1.31862      .   S
    N14    O41       3.18883  1_545   S
    Zr37   O42       1.34185      .   S
    N14    O42       3.16075  1_545   S
    Zr43   O44       1.60463      .   S
    N3     O44       3.86803      .   S
    Zr43   O45       1.32171      .   S
    N10    O45       3.18831      .   S
    Zr43   O46       1.34251      .   S
    N10    O46       3.16253      .   S
    Zr43   O47       1.64123      .   S
    N0     O47       3.93298  1_565   S
    Zr43   O48       2.08376      .   S
    N14    O48       5.20980  1_455   S
    Zr49   O50       2.00941      .   S
    N9     O50       5.11252      .   S
    Zr49   O51       1.65543  1_565   S
    N7     O51       3.97556      .   S
    Zr49   O52       1.26705      .   S
    N13    O52       3.16909      .   S
    Zr49   O53       1.60984      .   S
    N0     O53       3.88659  1_556   S
    Zr54   O55       1.63979      .   S
    N11    O55       3.92964  1_565   S
    Zr54   O56       1.34188      .   S
    N9     O56       3.16156      .   S
    Zr54   O57       1.32133      .   S
    N9     O57       3.18709      .   S
    Zr54   O58       2.08358      .   S
    N15    O58       5.20898      .   S
    Zr54   O59       1.60546      .   S
    N4     O59       3.86891      .   S
    Zr60   O61       1.60781      .   S
    N11    O61       3.87368      .   S
    Zr60   O62       2.08323      .   S
    N8     O62       5.20827      .   S
    Zr60   O63       1.64061      .   S
    N4     O63       3.93106      .   S
    Zr60   O64       1.33910      .   S
    N5     O64       3.15481  1_545   S
    Zr60   O65       1.31858      .   S
    N5     O65       3.18037  1_545   S
    Zr66   O67       1.32120      .   S
    N2     O67       3.18494  1_545   S
    Zr66   O68       1.34144      .   S
    N2     O68       3.15971  1_545   S
    Zr66   O69       1.64164      .   S
    N3     O69       3.93316      .   S
    Zr66   O70       2.07950      .   S
    N1     O70       5.19997      .   S
    Zr66   O71       1.60540      .   S
    N0     O71       3.86925      .   S
    Zr72   O73       2.01023      .   S
    N10    O73       5.11451  1_655   S
    Zr72   O74       1.65520  1_565   S
    N6     O74       3.97517      .   S
    Zr72   O75       1.61062      .   S
    N11    O75       3.88821  1_556   S
    Zr72   O76       1.26758      .   S
    N12    O76       3.17041      .   S
    Zr77   O78       1.26653      .   S
    N6     O78       3.16732      .   S
    Zr77   O79       1.65550      .   S
    N12    O79       3.97587      .   S
    Zr77   O80       1.60976      .   S
    N4     O80       3.88616  1_556   S
    Zr77   O81       2.01110      .   S
    N5     O81       5.11761      .   S
    Zr82   O83       1.25909      .   S
    N7     O83       3.15421      .   S
    Zr82   O84       2.01304      .   S
    N2     O84       5.12101      .   S
    Zr82   O85       1.61014      .   S
    N3     O85       3.88696  1_556   S
    Zr82   O86       1.65604      .   S
    N13    O86       3.97694      .   S
    Zr87   O88       1.63938      .   S
    N6     O88       3.92815      .   S
    Zr87   O89       1.60946      .   S
    N12    O89       3.87692      .   S
    Zr87   O90       1.34185      .   S
    N8     O90       3.16202      .   S
    Zr87   O91       1.32119      .   S
    N8     O91       3.18763      .   S
    Zr87   O92       2.08314      .   S
    N5     O92       5.20928      .   S
    Zr93   O94       1.64081      .   S
    N7     O94       3.93148      .   S
    Zr93   O95       1.60817      .   S
    N13    O95       3.87435      .   S
    Zr93   O96       2.08185      .   S
    N2     O96       5.20673      .   S
    Zr93   O97       1.32069      .   S
    N1     O97       3.18629      .   S
    Zr93   O98       1.34118      .   S
    N1     O98       3.16078      .   S
    Zr99   O100      1.65567      .   S
    N11    O100      3.97629      .   S
    Zr99   O101      1.61016      .   S
    N6     O101      3.88671  1_554   S
    Zr99   O102      2.01241      .   S
    N8     O102      5.11953      .   S
    Zr99   O103      1.25898      .   S
    N4     O103      3.15411      .   S
