# CIF file generated by openbabel 2.4.90, see http://openbabel.sf.net
data_I
_chemical_name_common ''
_cell_length_a 16.401
_cell_length_b 16.425
_cell_length_c 16.079
_cell_angle_alpha 90.014
_cell_angle_beta 89.992
_cell_angle_gamma 119.912
_space_group_name_H-M_alt 'P 1'
_space_group_name_Hall 'P 1'
loop_
    _symmetry_equiv_pos_as_xyz
    x,y,z
loop_
    _atom_site_label
    _atom_site_type_symbol
    _atom_site_fract_x
    _atom_site_fract_y
    _atom_site_fract_z
    _atom_site_occupancy
    Zr0     Zr   0.73544   0.47076   0.75000   1.000
    Zr1     Zr   0.73584   0.26386   0.75000   1.000
    Zr2     Zr   0.52838   0.26398   0.75000   1.000
    Zr3     Zr   0.26455   0.52927   0.25002   1.000
    Zr4     Zr   0.26416   0.73616   0.24996   1.000
    Zr5     Zr   0.47162   0.73604   0.25002   1.000
    Zr6     Zr   0.66653   0.33281   0.75002   1.000
    Zr7     Zr   0.33347   0.66722   0.25000   1.000
    O8      O    0.40254   0.70163   0.25001   1.000
    O9      O    0.29901   0.59824   0.25001   1.000
    O10     O    0.59746   0.29839   0.75001   1.000
    O11     O    0.70099   0.40178   0.75001   1.000
    O12     O    0.70118   0.29834   0.75001   1.000
    O13     O    0.29881   0.70169   0.24998   1.000
    N14     N    1.00000   0.50001   0.00001   1.000
    O15     O    0.89201   0.48878   0.89761   1.000
    O16     O    0.89226   0.40277   0.89762   1.000
    O17     O    0.10799   0.51124   0.10241   1.000
    O18     O    0.10773   0.59725   0.10238   1.000
    N19     N    0.50000   0.00001   0.00001   1.000
    O20     O    0.48921   0.89229   0.10241   1.000
    O21     O    0.59705   0.10766   0.89761   1.000
    O22     O    0.51079   0.10773   0.89761   1.000
    O23     O    0.40295   0.89236   0.10239   1.000
    N24     N    0.50000   0.50001   0.50000   1.000
    O25     O    0.59683   0.48881   0.60240   1.000
    O26     O    0.48934   0.59719   0.39762   1.000
    O27     O    0.40317   0.51121   0.39761   1.000
    O28     O    0.51066   0.40283   0.60239   1.000
    N29     N    1.00000   0.50001   0.50001   1.000
    O30     O    0.89227   0.40275   0.60240   1.000
    O31     O    0.10799   0.51128   0.39760   1.000
    O32     O    0.10773   0.59728   0.39760   1.000
    O33     O    0.89200   0.48875   0.60242   1.000
    N34     N    0.50000   0.00001   0.50001   1.000
    O35     O    0.51083   0.10775   0.60241   1.000
    O36     O    0.40291   0.89237   0.39760   1.000
    O37     O    0.48916   0.89228   0.39761   1.000
    O38     O    0.59709   0.10765   0.60241   1.000
    N39     N    0.50000   0.50001   1.00000   1.000
    O40     O    0.51064   0.40282   0.89761   1.000
    O41     O    0.59682   0.48880   0.89759   1.000
    O42     O    0.48935   0.59720   0.10240   1.000
    O43     O    0.40318   0.51122   0.10242   1.000
loop_
    _geom_bond_atom_site_label_1
    _geom_bond_atom_site_label_2
    _geom_bond_distance
    _geom_bond_site_symmetry_2
    _ccdc_geom_bond_type
    Zr7    O8        0.98200      .   S
    Zr5    O8        0.98200      .   S
    Zr7    O9        0.98201      .   S
    Zr3    O9        0.98201      .   S
    Zr2    O10       0.98200      .   S
    Zr6    O10       0.98200      .   S
    Zr0    O11       0.98201      .   S
    Zr6    O11       0.98201      .   S
    Zr6    O12       0.98209      .   S
    Zr1    O12       0.98209      .   S
    Zr7    O13       0.98210      .   S
    Zr4    O13       0.98210      .   S
    N14    O15       2.35729  1_554   S
    Zr0    O15       3.39965      .   S
    N14    O16       2.35972  1_554   S
    Zr1    O16       3.40336      .   S
    N14    O17       2.35726  1_655   S
    Zr3    O17       3.39968      .   S
    N14    O18       2.35955  1_655   S
    Zr4    O18       3.40287      .   S
    N19    O20       2.35832  1_545   S
    Zr5    O20       3.40106      .   S
    N19    O21       2.35888  1_554   S
    Zr1    O21       3.40207      .   S
    N19    O22       2.35828  1_554   S
    Zr2    O22       3.40104      .   S
    N19    O23       2.35875  1_545   S
    Zr4    O23       3.40159      .   S
    N24    O25       2.35780      .   S
    Zr0    O25       3.40041      .   S
    N24    O26       2.35964      .   S
    Zr5    O26       3.40326      .   S
    N24    O27       2.35769      .   S
    Zr3    O27       3.40029      .   S
    N24    O28       2.35975      .   S
    Zr2    O28       3.40339      .   S
    N29    O30       2.36003      .   S
    Zr1    O30       3.40332      .   S
    N29    O31       2.35697  1_655   S
    Zr3    O31       3.39906      .   S
    N29    O32       2.36020  1_655   S
    Zr4    O32       3.40381      .   S
    N29    O33       2.35697      .   S
    Zr0    O33       3.39906      .   S
    N34    O35       2.35769      .   S
    Zr2    O35       3.40004      .   S
    N34    O36       2.35890  1_545   S
    Zr4    O36       3.40180      .   S
    N34    O37       2.35768  1_545   S
    Zr5    O37       3.40005      .   S
    N34    O38       2.35875      .   S
    Zr1    O38       3.40130      .   S
    N39    O40       2.35916      .   S
    Zr2    O40       3.40253      .   S
    N39    O41       2.35736      .   S
    Zr0    O41       3.39989      .   S
    N39    O42       2.35930  1_556   S
    Zr5    O42       3.40268      .   S
    N39    O43       2.35754  1_556   S
    Zr3    O43       3.40001      .   S
