# CIF file generated by openbabel 2.4.90, see http://openbabel.sf.net
data_I
_chemical_name_common ''
_cell_length_a 5.615
_cell_length_b 18.961
_cell_length_c 23.888
_cell_angle_alpha 89.932
_cell_angle_beta 89.873
_cell_angle_gamma 89.57
_space_group_name_H-M_alt 'P 1'
_space_group_name_Hall 'P 1'
loop_
    _symmetry_equiv_pos_as_xyz
    x,y,z
loop_
    _atom_site_label
    _atom_site_type_symbol
    _atom_site_fract_x
    _atom_site_fract_y
    _atom_site_fract_z
    _atom_site_occupancy
    Cd0     Cd   0.91848   0.80863   0.46113   1.000
    Cd1     Cd   0.00000   0.30871   0.54175   1.000
    Cd2     Cd   0.42467   0.18843   0.54130   1.000
    Cd3     Cd   0.41874   0.80873   0.96018   1.000
    Cd4     Cd   0.92494   0.68844   0.96030   1.000
    Cd5     Cd   0.00000   0.18857   0.04196   1.000
    Cd6     Cd   0.42051   0.30886   0.00000   1.000
    H7      H    0.98985   0.54901   0.48349   1.000
    H8      H    0.04966   0.39164   0.35451   1.000
    H9      H    0.93418   0.60889   0.30912   1.000
    H10     H    0.00000   0.38983   0.19389   1.000
    H11     H    0.00000   0.44825   0.01926   1.000
    H12     H    0.05408   0.60601   0.14755   1.000
    H13     H    0.48855   0.44772   0.51902   1.000
    H14     H    0.54754   0.60493   0.64785   1.000
    H15     H    0.43004   0.38830   0.69345   1.000
    H16     H    0.43438   0.60790   0.80881   1.000
    H17     H    0.49365   0.54888   0.98331   1.000
    H18     H    0.54513   0.39065   0.85482   1.000
    H19     H    0.98944   0.94839   0.98329   1.000
    H20     H    0.05320   0.10615   0.85460   1.000
    H21     H    0.93113   0.88996   0.80886   1.000
    H22     H    0.00000   0.10880   0.69310   1.000
    H23     H    0.00000   0.04880   0.51884   1.000
    H24     H    0.04807   0.89137   0.64812   1.000
    H25     H    0.49195   0.04877   0.01911   1.000
    H26     H    0.54144   0.89042   0.14782   1.000
    H27     H    0.43618   0.10788   0.19362   1.000
    H28     H    0.43015   0.88827   0.30936   1.000
    H29     H    0.48906   0.94769   0.48361   1.000
    H30     H    0.55327   0.10467   0.35437   1.000
    C31     C    0.89782   0.65982   0.41511   1.000
    Cd32    Cd   0.41980   0.68843   0.46082   1.000
    C33     C    0.96497   0.58707   0.39789   1.000
    C34     C    0.99784   0.53531   0.43927   1.000
    C35     C    0.02153   0.46461   0.42359   1.000
    C36     C    0.01107   0.40810   0.46704   1.000
    C37     C    0.03108   0.44670   0.36685   1.000
    C38     C    0.00974   0.49890   0.32556   1.000
    C39     C    0.96738   0.56924   0.34123   1.000
    C40     C    0.01085   0.49920   0.17697   1.000
    C41     C    0.00000   0.42905   0.16160   1.000
    C42     C    0.00000   0.41083   0.10502   1.000
    C43     C    0.00000   0.33832   0.08822   1.000
    C44     C    0.99874   0.46213   0.06342   1.000
    C45     C    0.02424   0.53276   0.07881   1.000
    C46     C    0.01550   0.58900   0.03512   1.000
    C47     C    0.03403   0.55099   0.13547   1.000
    C48     C    0.39684   0.33727   0.58745   1.000
    C49     C    0.46218   0.40986   0.60465   1.000
    C50     C    0.49584   0.46144   0.56322   1.000
    C51     C    0.51961   0.53203   0.57883   1.000
    C52     C    0.51043   0.58856   0.53535   1.000
    C53     C    0.52853   0.54995   0.63556   1.000
    C54     C    0.50607   0.49793   0.67690   1.000
    C55     C    0.46368   0.42777   0.66130   1.000
    C56     C    0.50706   0.49783   0.82553   1.000
    C57     C    0.46729   0.56836   0.84102   1.000
    C58     C    0.46717   0.58656   0.89761   1.000
    C59     C    0.40262   0.65961   0.91460   1.000
    C60     C    0.49968   0.53493   0.93913   1.000
    C61     C    0.52098   0.46409   0.92366   1.000
    C62     C    0.51074   0.40782   0.96734   1.000
    C63     C    0.52828   0.44582   0.86697   1.000
    C64     C    0.89571   0.83842   0.91450   1.000
    C65     C    0.96361   0.91097   0.89762   1.000
    C66     C    0.99788   0.00000   0.93909   1.000
    C67     C    0.02351   0.03290   0.92352   1.000
    C68     C    0.01538   0.08913   0.96713   1.000
    C69     C    0.03304   0.05113   0.86680   1.000
    C70     C    0.00956   0.00000   0.82544   1.000
    C71     C    0.96574   0.92918   0.84102   1.000
    C72     C    0.00934   0.99869   0.67686   1.000
    C73     C    0.00000   0.06909   0.66106   1.000
    C74     C    0.00000   0.08691   0.60437   1.000
    C75     C    0.00000   0.15978   0.58713   1.000
    C76     C    0.99924   0.03510   0.56308   1.000
    C77     C    0.02164   0.96435   0.57889   1.000
    C78     C    0.01093   0.90792   0.53549   1.000
    C79     C    0.03033   0.94644   0.63567   1.000
    C80     C    0.40286   0.15959   0.08779   1.000
    C81     C    0.46696   0.08648   0.10479   1.000
    C82     C    0.49810   0.03479   0.06331   1.000
    C83     C    0.51802   0.96391   0.07888   1.000
    C84     C    0.50633   0.90771   0.03530   1.000
    C85     C    0.52567   0.94562   0.13559   1.000
    C86     C    0.50656   0.99768   0.17697   1.000
    C87     C    0.46777   0.06829   0.16141   1.000
    C88     C    0.50855   0.00000   0.32560   1.000
    C89     C    0.46454   0.92769   0.34139   1.000
    C90     C    0.46254   0.90980   0.39808   1.000
    C91     C    0.39660   0.83726   0.41546   1.000
    C92     C    0.49704   0.96134   0.43937   1.000
    C93     C    0.52292   0.03189   0.42358   1.000
    C94     C    0.51511   0.08844   0.46697   1.000
    C95     C    0.53257   0.04976   0.36680   1.000
    N96     N    0.01643   0.47464   0.26958   1.000
    N97     N    0.01719   0.52363   0.23293   1.000
    N98     N    0.51298   0.52225   0.73287   1.000
    N99     N    0.51197   0.47332   0.76957   1.000
    N100    N    0.01619   0.02364   0.76940   1.000
    N101    N    0.01531   0.97453   0.73292   1.000
    N102    N    0.51187   0.97316   0.23296   1.000
    N103    N    0.51546   0.02210   0.26956   1.000
    O104    O    0.01268   0.68850   0.45702   1.000
    O105    O    0.72847   0.69145   0.39081   1.000
    O106    O    0.00000   0.42588   0.51864   1.000
    O107    O    0.01041   0.34357   0.45170   1.000
    O108    O    0.00000   0.30803   0.11280   1.000
    O109    O    0.01231   0.30865   0.04645   1.000
    O110    O    0.02041   0.65365   0.05009   1.000
    O111    O    0.99021   0.57101   0.98371   1.000
    O112    O    0.51301   0.30852   0.54539   1.000
    O113    O    0.22840   0.30584   0.61180   1.000
    O114    O    0.48973   0.57094   0.48375   1.000
    O115    O    0.51022   0.65309   0.55071   1.000
    O116    O    0.23273   0.69135   0.89050   1.000
    O117    O    0.51953   0.68856   0.95604   1.000
    O118    O    0.50985   0.34319   0.95226   1.000
    O119    O    0.49011   0.42593   0.00000   1.000
    O120    O    0.01114   0.80861   0.95616   1.000
    O121    O    0.72582   0.80813   0.89007   1.000
    O122    O    0.00000   0.07111   0.01862   1.000
    O123    O    0.02058   0.15378   0.95205   1.000
    O124    O    0.00000   0.19144   0.61125   1.000
    O125    O    0.01844   0.18860   0.54546   1.000
    O126    O    0.01009   0.84335   0.55086   1.000
    O127    O    0.98972   0.92581   0.48389   1.000
    O128    O    0.52035   0.18862   0.00000   1.000
    O129    O    0.23274   0.19131   0.11193   1.000
    O130    O    0.49010   0.92584   0.98367   1.000
    O131    O    0.50058   0.84312   0.05057   1.000
    O132    O    0.22887   0.80573   0.39112   1.000
    O133    O    0.51157   0.80851   0.45763   1.000
    O134    O    0.52012   0.15297   0.45158   1.000
    O135    O    0.49012   0.07086   0.51854   1.000
loop_
    _geom_bond_atom_site_label_1
    _geom_bond_atom_site_label_2
    _geom_bond_distance
    _geom_bond_site_symmetry_2
    _ccdc_geom_bond_type
    O119   C62       0.86008  1_554   S
    Cd6    O118      1.40602  1_554   S
    O122   Cd5       2.29661      .   S
    O122   C68       1.27910  1_554   S
    H25    C82       1.08893      .   S
    H11    C44       1.08753  1_455   S
    C46    O110      1.27782      .   S
    C46    C45       1.49192      .   S
    C46    O111      1.28350  1_454   S
    C84    O131      1.27806      .   S
    C84    C83       1.49255      .   S
    C84    O130      1.28314  1_554   S
    Cd5    O109      2.28100      .   S
    Cd5    O129      2.12493      .   S
    Cd5    O123      2.24992  1_554   S
    O109   C43       1.14796      .   S
    O110   Cd4       2.30640  1_454   S
    O131   Cd3       2.30444  1_554   S
    C82    C83       1.39784  1_545   S
    C82    C81       1.40413      .   S
    C44    C45       1.39752  1_655   S
    C44    C42       1.38982  1_655   S
    C45    C47       1.39864      .   S
    C83    C85       1.39858      .   S
    C80    C81       1.48599      .   S
    C80    O129      1.26350      .   S
    C43    C42       1.43267      .   S
    C43    O108      0.82081      .   S
    C81    C87       1.39556      .   S
    C42    C41       1.39529      .   S
    C47    H12       1.08935      .   S
    C47    C40       1.40112      .   S
    C85    H26       1.08935      .   S
    C85    C86       1.40111      .   S
    C87    C86       1.40459  1_545   S
    C87    H27       1.08886      .   S
    C41    C40       1.38225      .   S
    C41    H10       1.07086      .   S
    C86    N102      1.41565      .   S
    C40    N97       1.41567      .   S
    N97    N96       1.27576      .   S
    N102   N103      1.27608  1_565   S
    N103   C88       1.40261      .   S
    N96    C38       1.41518      .   S
    H9     C39       1.08888      .   S
    H28    C89       1.08888      .   S
    C38    C39       1.40399  1_455   S
    C38    C37       1.40120      .   S
    C88    C89       1.44454  1_545   S
    C88    C95       1.37188      .   S
    C39    C33       1.39550      .   S
    C89    C90       1.39569      .   S
    H30    C95       1.08937      .   S
    H8     C37       1.08932      .   S
    C95    C93       1.39866      .   S
    C37    C35       1.39847      .   S
    O105   C31       1.26254      .   S
    O105   Cd32      2.40687      .   S
    O132   C91       1.26261      .   S
    O132   Cd0       2.41318  1_455   S
    C33    C31       1.48548      .   S
    C33    C34       1.40368      .   S
    C90    C91       1.48566      .   S
    C90    C92       1.40395      .   S
    C31    O104      1.31279  1_655   S
    C91    O133      1.31330      .   S
    C93    C92       1.39781  1_545   S
    C93    C94       1.49250      .   S
    C35    C34       1.39756  1_455   S
    C35    C36       1.49222      .   S
    C34    H7        1.08880      .   S
    C92    H29       1.08880      .   S
    O134   C94       1.27756      .   S
    O134   Cd2       2.30775      .   S
    O107   C36       1.27773      .   S
    O107   Cd1       2.25046      .   S
    O104   Cd32      2.28801      .   S
    O133   Cd0       2.28655      .   S
    Cd32   O114      2.32428      .   S
    Cd32   O115      2.30524      .   S
    Cd0    O127      2.32577      .   S
    Cd0    O126      2.30349  1_655   S
    C94    O135      1.28347      .   S
    C36    O106      1.27961      .   S
    O114   C52       1.28333      .   S
    O127   C78       1.28350  1_655   S
    O135   Cd2       2.32155      .   S
    O106   Cd1       2.28864      .   S
    H23    C76       1.08803  1_455   S
    H13    C50       1.08882      .   S
    C52    O115      1.27766      .   S
    C52    C51       1.49241      .   S
    C78    O126      1.27783      .   S
    C78    C77       1.49235      .   S
    Cd2    O112      2.33626      .   S
    Cd1    O125      2.28051      .   S
    Cd1    O113      2.11091      .   S
    O112   C48       1.31336      .   S
    O125   C75       1.13995      .   S
    C76    C77       1.39803  1_645   S
    C76    C74       1.39293  1_655   S
    C50    C51       1.39734      .   S
    C50    C49       1.40395      .   S
    C51    C53       1.39859      .   S
    C77    C79       1.39869      .   S
    C75    C74       1.44140      .   S
    C75    O124      0.83240      .   S
    C48    C49       1.48580      .   S
    C48    O113      1.26222      .   S
    C74    C73       1.39524      .   S
    C49    C55       1.39564      .   S
    C53    H14       1.08935      .   S
    C53    C54       1.40115      .   S
    C79    H24       1.08935      .   S
    C79    C72       1.40132      .   S
    C73    C72       1.38736  1_545   S
    C73    H22       1.07438      .   S
    C55    C54       1.40416      .   S
    C55    H15       1.08888      .   S
    C72    N101      1.41518      .   S
    C54    N98       1.41553      .   S
    N98    N99       1.27574      .   S
    N101   N100      1.27622  1_565   S
    N100   C70       1.41157      .   S
    N99    C56       1.41573      .   S
    H16    C57       1.08889      .   S
    H21    C71       1.08877      .   S
    C70    C71       1.41612  1_445   S
    C70    C69       1.39239      .   S
    C56    C57       1.40407      .   S
    C56    C63       1.40114      .   S
    C71    C65       1.39519      .   S
    C57    C58       1.39559      .   S
    H20    C69       1.08937      .   S
    H18    C63       1.08935      .   S
    C69    C67       1.39879      .   S
    C63    C61       1.39860      .   S
    O121   C64       1.26171      .   S
    O121   Cd3       2.40117      .   S
    O116   C59       1.26356      .   S
    O116   Cd4       2.39976  1_455   S
    C58    C59       1.48589      .   S
    C58    C60       1.40381      .   S
    C65    C64       1.48544      .   S
    C65    C66       1.96908  1_565   S
    C64    O120      1.31371  1_655   S
    C59    O117      1.31219      .   S
    C67    C66       0.74081  1_455   S
    C67    C68       1.49198      .   S
    C61    C60       1.39780      .   S
    C61    C62       1.49267      .   S
    C66    H19       1.43964  1_545   S
    C60    H17       1.08883      .   S
    O123   C68       1.27777      .   S
    O118   C62       1.27771      .   S
    O117   Cd4       2.27884      .   S
    O120   Cd3       2.29092      .   S
    Cd3    O130      2.32879      .   S
    Cd4    O111      2.32160      .   S
    O104   Cd0       2.33666  1_455   S
    O109   Cd6       2.54426      .   S
    O109   O108      1.58645      .   S
    O117   Cd3       2.34582      .   S
    O119   Cd6       2.25679      .   S
    O120   Cd4       2.33495  1_455   S
    O125   Cd2       2.28289      .   S
    O125   O124      1.57570      .   S
    O128   Cd6       2.34367      .   S
    O133   Cd32      2.33928      .   S
