# CIF file generated by openbabel 2.4.90, see http://openbabel.sf.net
data_I
_chemical_name_common ''
_cell_length_a 14.07
_cell_length_b 15.811
_cell_length_c 26.043
_cell_angle_alpha 90.002
_cell_angle_beta 89.998
_cell_angle_gamma 93.291
_space_group_name_H-M_alt 'P 1'
_space_group_name_Hall 'P 1'
loop_
    _symmetry_equiv_pos_as_xyz
    x,y,z
loop_
    _atom_site_label
    _atom_site_type_symbol
    _atom_site_fract_x
    _atom_site_fract_y
    _atom_site_fract_z
    _atom_site_occupancy
    Zr0     Zr   0.87325   0.99553   0.03237   1.000
    Zr1     Zr   0.62083   0.99613   0.97006   1.000
    Zr2     Zr   0.12673   0.50451   0.53238   1.000
    Zr3     Zr   0.37916   0.50391   0.47005   1.000
    Zr4     Zr   0.12672   0.00450   0.96762   1.000
    Zr5     Zr   0.37915   0.00388   0.02993   1.000
    Zr6     Zr   0.87325   0.49550   0.46761   1.000
    Zr7     Zr   0.62082   0.49611   0.52994   1.000
    Zr8     Zr   0.71605   0.07969   0.04225   1.000
    Zr9     Zr   0.76403   0.89385   0.96630   1.000
    Zr10    Zr   0.96560   0.09006   0.96460   1.000
    Zr11    Zr   0.51122   0.88750   0.02628   1.000
    Zr12    Zr   0.28392   0.42032   0.54225   1.000
    Zr13    Zr   0.23596   0.60619   0.46636   1.000
    Zr14    Zr   0.03437   0.40995   0.46459   1.000
    Zr15    Zr   0.48877   0.61253   0.52630   1.000
    Zr16    Zr   0.28391   0.92032   0.95774   1.000
    Zr17    Zr   0.23595   0.10617   0.03362   1.000
    Zr18    Zr   0.03438   0.90996   0.03539   1.000
    Zr19    Zr   0.48875   0.11252   0.97370   1.000
    Zr20    Zr   0.71606   0.57970   0.45774   1.000
    Zr21    Zr   0.76402   0.39383   0.53363   1.000
    Zr22    Zr   0.96561   0.59007   0.53540   1.000
    Zr23    Zr   0.51121   0.38749   0.47370   1.000
    O24     O    0.56602   0.94182   0.99817   1.000
    O25     O    0.30755   0.05503   0.03177   1.000
    O26     O    0.33153   0.96210   0.99384   1.000
    O27     O    0.43395   0.05820   0.00181   1.000
    O28     O    0.91942   0.04279   0.99848   1.000
    O29     O    0.08055   0.95723   0.00150   1.000
    O30     O    0.66844   0.03791   0.00616   1.000
    O31     O    0.66844   0.53791   0.49384   1.000
    O32     O    0.08055   0.45723   0.49848   1.000
    O33     O    0.30756   0.55505   0.46820   1.000
    O34     O    0.91943   0.54279   0.50150   1.000
    O35     O    0.43396   0.55822   0.49817   1.000
    O36     O    0.33154   0.46211   0.50615   1.000
    O37     O    0.56602   0.44180   0.50182   1.000
    O38     O    0.69242   0.44497   0.53178   1.000
    O39     O    0.69243   0.94499   0.96818   1.000
    N40     N    0.88921   0.15705   0.71236   1.000
    O41     O    0.99194   0.30834   0.64033   1.000
    O42     O    0.77700   0.09779   0.82496   1.000
    N43     N    0.36650   0.68587   0.78050   1.000
    O44     O    0.26065   0.61923   0.67331   1.000
    O45     O    0.47066   0.82660   0.85724   1.000
    N46     N    0.11022   0.84229   0.28762   1.000
    O47     O    0.22271   0.90189   0.17503   1.000
    O48     O    0.00777   0.69134   0.35966   1.000
    N49     N    0.36650   0.18598   0.71948   1.000
    O50     O    0.26065   0.11927   0.82668   1.000
    O51     O    0.47065   0.32664   0.64275   1.000
    N52     N    0.63346   0.31403   0.21947   1.000
    O53     O    0.73932   0.38073   0.32667   1.000
    O54     O    0.52931   0.17336   0.14274   1.000
    N55     N    0.88921   0.65774   0.78763   1.000
    O56     O    0.99194   0.80868   0.85967   1.000
    O57     O    0.77700   0.59813   0.67504   1.000
    N58     N    0.11022   0.34228   0.21235   1.000
    O59     O    0.00776   0.19134   0.14032   1.000
    O60     O    0.22271   0.40189   0.32495   1.000
    N61     N    0.63347   0.81404   0.28049   1.000
    O62     O    0.52932   0.67338   0.35723   1.000
    O63     O    0.73932   0.88075   0.17330   1.000
loop_
    _geom_bond_atom_site_label_1
    _geom_bond_atom_site_label_2
    _geom_bond_distance
    _geom_bond_site_symmetry_2
    _ccdc_geom_bond_type
    Zr11   O24       1.33868  1_554   S
    Zr1    O24       1.33868      .   S
    Zr5    O25       1.32834      .   S
    Zr17   O25       1.32834      .   S
    Zr5    O26       1.31074  1_544   S
    Zr16   O26       1.31074      .   S
    Zr5    O27       1.33875      .   S
    Zr19   O27       1.33875  1_556   S
    Zr0    O28       1.30523  1_564   S
    Zr10   O28       1.30523      .   S
    Zr18   O29       1.30522      .   S
    Zr4    O29       1.30522  1_546   S
    Zr8    O30       1.31071      .   S
    Zr1    O30       1.31071  1_566   S
    Zr20   O31       1.31097      .   S
    Zr7    O31       1.31097      .   S
    Zr14   O32       1.30557      .   S
    Zr2    O32       1.30557      .   S
    Zr13   O33       1.32835      .   S
    Zr3    O33       1.32835      .   S
    Zr6    O34       1.30557      .   S
    Zr22   O34       1.30557      .   S
    Zr3    O35       1.33884      .   S
    Zr15   O35       1.33884      .   S
    Zr3    O36       1.31098      .   S
    Zr12   O36       1.31098      .   S
    Zr23   O37       1.33877      .   S
    Zr7    O37       1.33877      .   S
    Zr7    O38       1.32834      .   S
    Zr21   O38       1.32834      .   S
    Zr9    O39       1.32837      .   S
    Zr1    O39       1.32837      .   S
    N40    O41       3.30659      .   S
    Zr2    O41       4.52170  1_455   S
    N40    O42       3.43495      .   S
    Zr1    O42       4.61368  1_565   S
    N43    O44       3.30775      .   S
    Zr2    O44       4.46292      .   S
    N43    O45       3.27382      .   S
    Zr1    O45       4.43083      .   S
    N46    O47       3.43785      .   S
    Zr5    O47       4.61702  1_545   S
    N46    O48       3.30140      .   S
    Zr6    O48       4.51680  1_655   S
    N49    O50       3.30829      .   S
    Zr4    O50       4.46357      .   S
    N49    O51       3.27304      .   S
    Zr7    O51       4.43004      .   S
    N52    O53       3.30833      .   S
    Zr6    O53       4.46358      .   S
    N52    O54       3.27308      .   S
    Zr5    O54       4.43000      .   S
    N55    O56       3.30277      .   S
    Zr4    O56       4.51794  1_445   S
    N55    O57       3.43624      .   S
    Zr7    O57       4.61547      .   S
    N58    O59       3.30117      .   S
    Zr0    O59       4.51641  1_665   S
    N58    O60       3.43808      .   S
    Zr3    O60       4.61735      .   S
    N61    O62       3.27322      .   S
    Zr3    O62       4.43022      .   S
    N61    O63       3.30804      .   S
    Zr0    O63       4.46332      .   S
