# CIF file generated by openbabel 2.4.90, see http://openbabel.sf.net
data_I
_chemical_name_common ''
_cell_length_a 10.3935
_cell_length_b 17.884
_cell_length_c 21.009
_cell_angle_alpha 90.126
_cell_angle_beta 90.167
_cell_angle_gamma 90.149
_space_group_name_H-M_alt 'P 1'
_space_group_name_Hall 'P 1'
loop_
    _symmetry_equiv_pos_as_xyz
    x,y,z
loop_
    _atom_site_label
    _atom_site_type_symbol
    _atom_site_fract_x
    _atom_site_fract_y
    _atom_site_fract_z
    _atom_site_occupancy
    Lv0     Lv   0.57366   0.87312   0.66785   1.000
    Lv1     Lv   0.91892   0.37321   0.33146   1.000
    Lv2     Lv   0.41708   0.62317   0.41942   1.000
    Lv3     Lv   0.35010   0.55677   0.93041   1.000
    Lv4     Lv   0.91552   0.37315   0.83135   1.000
    Lv5     Lv   0.07554   0.12382   0.58387   1.000
    Lv6     Lv   0.08068   0.12148   0.08168   1.000
    Lv7     Lv   0.58061   0.87255   0.16933   1.000
    Lv8     Lv   0.54187   0.73562   0.00000   1.000
