# CIF file generated by openbabel 2.4.90, see http://openbabel.sf.net
data_I
_chemical_name_common ''
_cell_length_a 7.983
_cell_length_b 14.441
_cell_length_c 14.453
_cell_angle_alpha 89.786
_cell_angle_beta 89.654
_cell_angle_gamma 85.679
_space_group_name_H-M_alt 'P 1'
_space_group_name_Hall 'P 1'
loop_
    _symmetry_equiv_pos_as_xyz
    x,y,z
loop_
    _atom_site_label
    _atom_site_type_symbol
    _atom_site_fract_x
    _atom_site_fract_y
    _atom_site_fract_z
    _atom_site_occupancy
    Zr0     Zr   0.73843   0.06645   0.56955   1.000
    Zr1     Zr   0.22962   0.06291   0.57462   1.000
    Zr2     Zr   0.77342   0.43727   0.07489   1.000
    Zr3     Zr   0.25704   0.43314   0.06931   1.000
    Zr4     Zr   0.77362   0.93757   0.42502   1.000
    Zr5     Zr   0.25932   0.93323   0.43029   1.000
    Zr6     Zr   0.74098   0.56670   0.92999   1.000
    Zr7     Zr   0.22985   0.56332   0.92478   1.000
    Zr8     Zr   0.59422   0.12763   0.37626   1.000
    Zr9     Zr   0.09174   0.12482   0.37988   1.000
    Zr10    Zr   0.90845   0.37493   0.87969   1.000
    Zr11    Zr   0.40596   0.37227   0.87760   1.000
    Zr12    Zr   0.90862   0.87537   0.62001   1.000
    Zr13    Zr   0.40630   0.87218   0.62213   1.000
    Zr14    Zr   0.59764   0.62782   0.12365   1.000
    Zr15    Zr   0.09244   0.62509   0.12015   1.000
    Zr16    Zr   0.65255   0.16008   0.44967   1.000
    Zr17    Zr   0.15466   0.15613   0.45254   1.000
    Zr18    Zr   0.59964   0.04277   0.35157   1.000
    Zr19    Zr   0.08931   0.03987   0.35606   1.000
    Zr20    Zr   0.84497   0.34357   0.95283   1.000
    Zr21    Zr   0.34027   0.33966   0.94955   1.000
    Zr22    Zr   0.91134   0.45991   0.85551   1.000
    Zr23    Zr   0.40766   0.45748   0.85442   1.000
    Zr24    Zr   0.84547   0.84395   0.54744   1.000
    Zr25    Zr   0.34088   0.83970   0.55071   1.000
    Zr26    Zr   0.91084   0.96035   0.64373   1.000
    Zr27    Zr   0.40753   0.95736   0.64492   1.000
    Zr28    Zr   0.65940   0.66018   0.05046   1.000
    Zr29    Zr   0.15545   0.65642   0.04690   1.000
    Zr30    Zr   0.59977   0.54287   0.14828   1.000
    Zr31    Zr   0.08909   0.54010   0.14431   1.000
    O32     O    0.12395   0.64075   0.08353   1.000
    O33     O    0.19265   0.60987   0.98584   1.000
    O34     O    0.62852   0.64400   0.08706   1.000
    O35     O    0.70019   0.61344   0.99023   1.000
    O36     O    0.17307   0.48662   0.10681   1.000
    O37     O    0.24344   0.49823   0.99705   1.000
    O38     O    0.29865   0.38640   0.00943   1.000
    O39     O    0.68659   0.49007   0.11158   1.000
    O40     O    0.75720   0.50199   0.00244   1.000
    O41     O    0.80920   0.39042   0.01386   1.000
    O42     O    0.09077   0.58259   0.13223   1.000
    O43     O    0.59870   0.58535   0.13597   1.000
    O44     O    0.59693   0.08520   0.36391   1.000
    O45     O    0.68663   0.99017   0.38830   1.000
    O46     O    0.09053   0.08235   0.36797   1.000
    O47     O    0.17431   0.98655   0.39317   1.000
    O48     O    0.62338   0.14386   0.41296   1.000
    O49     O    0.12320   0.14048   0.41621   1.000
    O50     O    0.80955   0.89076   0.48623   1.000
    O51     O    0.75603   0.00201   0.49729   1.000
    O52     O    0.30010   0.88646   0.49050   1.000
    O53     O    0.24447   0.99807   0.50246   1.000
    O54     O    0.69549   0.11327   0.50961   1.000
    O55     O    0.19214   0.10952   0.51358   1.000
    O56     O    0.87704   0.85966   0.58373   1.000
    O57     O    0.37359   0.85594   0.58642   1.000
    O58     O    0.82463   0.01340   0.60664   1.000
    O59     O    0.31857   0.01014   0.60977   1.000
    O60     O    0.90973   0.91786   0.63187   1.000
    O61     O    0.40691   0.91477   0.63353   1.000
    O62     O    0.40681   0.41487   0.86601   1.000
    O63     O    0.31876   0.51040   0.88960   1.000
    O64     O    0.90990   0.41742   0.86760   1.000
    O65     O    0.82616   0.51330   0.89275   1.000
    O66     O    0.37312   0.35597   0.91357   1.000
    O67     O    0.87671   0.35925   0.91626   1.000
    N68     N    0.95296   0.26341   0.24629   1.000
    O69     O    0.00337   0.21190   0.29619   1.000
    O70     O    0.89286   0.32323   0.18746   1.000
    N71     N    0.95444   0.76364   0.25394   1.000
    O72     O    0.00463   0.71215   0.20398   1.000
    O73     O    0.89398   0.82348   0.31267   1.000
    N74     N    0.06489   0.23643   0.74621   1.000
    O75     O    0.11740   0.17671   0.68738   1.000
    O76     O    0.00956   0.28790   0.79607   1.000
    N77     N    0.45071   0.76395   0.25736   1.000
    O78     O    0.38665   0.82231   0.31662   1.000
    O79     O    0.50408   0.71339   0.20735   1.000
    N80     N    0.55182   0.23628   0.74342   1.000
    O81     O    0.49889   0.28680   0.79361   1.000
    O82     O    0.61448   0.17780   0.68386   1.000
    N83     N    0.44816   0.26361   0.24211   1.000
    O84     O    0.38427   0.32203   0.18285   1.000
    O85     O    0.50119   0.21308   0.29228   1.000
    N86     N    0.06484   0.73689   0.75341   1.000
    O87     O    0.11758   0.67714   0.81219   1.000
    O88     O    0.00958   0.78836   0.70358   1.000
    N89     N    0.55240   0.73614   0.75628   1.000
    O90     O    0.61554   0.67775   0.81582   1.000
    O91     O    0.49941   0.78668   0.70608   1.000
loop_
    _geom_bond_atom_site_label_1
    _geom_bond_atom_site_label_2
    _geom_bond_distance
    _geom_bond_site_symmetry_2
    _ccdc_geom_bond_type
    Zr29   O32       0.63299      .   S
    Zr15   O32       0.63299      .   S
    Zr29   O33       1.13584  1_554   S
    Zr7    O33       1.13584      .   S
    Zr28   O34       0.63348      .   S
    Zr14   O34       0.63348      .   S
    Zr28   O35       1.13465  1_554   S
    Zr6    O35       1.13465      .   S
    Zr3    O36       1.12261      .   S
    Zr31   O36       1.12261      .   S
    Zr3    O37       1.40176  1_554   S
    Zr7    O37       1.40176      .   S
    Zr3    O38       1.13232      .   S
    Zr21   O38       1.13232  1_556   S
    Zr2    O39       1.12342      .   S
    Zr30   O39       1.12342      .   S
    Zr2    O40       1.40094      .   S
    Zr6    O40       1.40094  1_556   S
    Zr2    O41       1.13560      .   S
    Zr20   O41       1.13560  1_556   S
    Zr15   O42       0.63846      .   S
    Zr31   O42       0.63846      .   S
    Zr14   O43       0.63751      .   S
    Zr30   O43       0.63751      .   S
    Zr18   O44       0.63757      .   S
    Zr8    O44       0.63757      .   S
    Zr18   O45       1.12382  1_545   S
    Zr4    O45       1.12382      .   S
    Zr19   O46       0.63849      .   S
    Zr9    O46       0.63849      .   S
    Zr19   O47       1.12416  1_545   S
    Zr5    O47       1.12416      .   S
    Zr8    O48       0.63336      .   S
    Zr16   O48       0.63336      .   S
    Zr9    O49       0.63317      .   S
    Zr17   O49       0.63317      .   S
    Zr4    O50       1.13631      .   S
    Zr24   O50       1.13631      .   S
    Zr4    O51       1.40083  1_565   S
    Zr0    O51       1.40083      .   S
    Zr5    O52       1.13371      .   S
    Zr25   O52       1.13371      .   S
    Zr5    O53       1.40278      .   S
    Zr1    O53       1.40278  1_545   S
    Zr16   O54       1.13551      .   S
    Zr0    O54       1.13551      .   S
    Zr17   O55       1.13550      .   S
    Zr1    O55       1.13550      .   S
    Zr24   O56       0.63332      .   S
    Zr12   O56       0.63332      .   S
    Zr25   O57       0.63351      .   S
    Zr13   O57       0.63351      .   S
    Zr0    O58       1.12686      .   S
    Zr26   O58       1.12686  1_565   S
    Zr1    O59       1.12386      .   S
    Zr27   O59       1.12386  1_565   S
    Zr12   O60       0.63841      .   S
    Zr26   O60       0.63841      .   S
    Zr13   O61       0.63769      .   S
    Zr27   O61       0.63769      .   S
    Zr23   O62       0.63750      .   S
    Zr11   O62       0.63750      .   S
    Zr23   O63       1.12389      .   S
    Zr7    O63       1.12389      .   S
    Zr22   O64       0.63830      .   S
    Zr10   O64       0.63830      .   S
    Zr22   O65       1.12533      .   S
    Zr6    O65       1.12533      .   S
    Zr11   O66       0.63350      .   S
    Zr21   O66       0.63350      .   S
    Zr10   O67       0.63324      .   S
    Zr20   O67       0.63324      .   S
    N68    O69       1.09086  1_655   S
    Zr9    O69       1.84582      .   S
    N68    O70       1.27922      .   S
    Zr2    O70       2.45570      .   S
    N71    O72       1.09110  1_655   S
    Zr15   O72       1.84617      .   S
    N71    O73       1.27974      .   S
    Zr4    O73       2.45712      .   S
    N74    O75       1.26065      .   S
    Zr1    O75       2.43715      .   S
    N74    O76       1.10339      .   S
    Zr10   O76       1.88099  1_655   S
    N77    O78       1.28078      .   S
    Zr5    O78       2.46015      .   S
    N77    O79       1.09111      .   S
    Zr14   O79       1.84638      .   S
    N80    O81       1.09123      .   S
    Zr11   O81       1.84649      .   S
    N80    O82       1.28104      .   S
    Zr0    O82       2.46060      .   S
    N83    O84       1.28081      .   S
    Zr3    O84       2.46047      .   S
    N83    O85       1.09112      .   S
    Zr8    O85       1.84642      .   S
    N86    O87       1.25990      .   S
    Zr7    O87       2.43493      .   S
    N86    O88       1.10285      .   S
    Zr12   O88       1.88010  1_655   S
    N89    O90       1.28111      .   S
    Zr6    O90       2.46080      .   S
    N89    O91       1.09142      .   S
    Zr13   O91       1.84681      .   S
