# CIF file generated by openbabel 2.4.90, see http://openbabel.sf.net
data_I
_chemical_name_common ''
_cell_length_a 18.067
_cell_length_b 20.611
_cell_length_c 18.888
_cell_angle_alpha 89.978
_cell_angle_beta 89.993
_cell_angle_gamma 90.027
_space_group_name_H-M_alt 'P 1'
_space_group_name_Hall 'P 1'
loop_
    _symmetry_equiv_pos_as_xyz
    x,y,z
loop_
    _atom_site_label
    _atom_site_type_symbol
    _atom_site_fract_x
    _atom_site_fract_y
    _atom_site_fract_z
    _atom_site_occupancy
    C0      C    0.46175   0.47231   0.69829   1.000
    C1      C    0.46175   0.97232   0.69829   1.000
    C2      C    0.96176   0.47231   0.69829   1.000
    C3      C    0.96176   0.97231   0.69829   1.000
    C4      C    0.21167   0.02771   0.30169   1.000
    C5      C    0.21167   0.52771   0.30169   1.000
    C6      C    0.71168   0.02771   0.30169   1.000
    C7      C    0.71168   0.52771   0.30160   1.000
    C8      C    0.46169   0.27774   0.19832   1.000
    C9      C    0.46169   0.77775   0.19832   1.000
    C10     C    0.96170   0.27774   0.19833   1.000
    C11     C    0.96170   0.77775   0.19830   1.000
    C12     C    0.21167   0.22227   0.80166   1.000
    C13     C    0.21168   0.72228   0.80166   1.000
    C14     C    0.71169   0.22227   0.80166   1.000
    C15     C    0.71168   0.72228   0.80166   1.000
