# CIF file generated by openbabel 2.4.90, see http://openbabel.sf.net
data_I
_chemical_name_common ''
_cell_length_a 17.2
_cell_length_b 18.534
_cell_length_c 18.532
_cell_angle_alpha 77.738
_cell_angle_beta 62.555
_cell_angle_gamma 62.555
_space_group_name_H-M_alt 'P 1'
_space_group_name_Hall 'P 1'
loop_
    _symmetry_equiv_pos_as_xyz
    x,y,z
loop_
    _atom_site_label
    _atom_site_type_symbol
    _atom_site_fract_x
    _atom_site_fract_y
    _atom_site_fract_z
    _atom_site_occupancy
    C0      C    0.29219   0.23915   0.01120   1.000
    C1      C    0.29220   0.23914   0.51124   1.000
    C2      C    0.29220   0.73914   0.01120   1.000
    C3      C    0.29220   0.73914   0.51124   1.000
    C4      C    0.79218   0.23914   0.01124   1.000
    C5      C    0.79219   0.23914   0.51124   1.000
    C6      C    0.79219   0.73914   0.01123   1.000
    C7      C    0.79219   0.73914   0.51124   1.000
    C8      C    0.29218   0.01123   0.23917   1.000
    C9      C    0.29219   0.01122   0.73918   1.000
    C10     C    0.29219   0.51122   0.23916   1.000
    C11     C    0.29221   0.51121   0.73917   1.000
    C12     C    0.79217   0.01123   0.23917   1.000
    C13     C    0.79219   0.01122   0.73918   1.000
    C14     C    0.79218   0.51122   0.23916   1.000
    C15     C    0.79220   0.51121   0.73917   1.000
    C16     C    0.30326   0.48910   0.48914   1.000
    C17     C    0.30327   0.48910   0.98915   1.000
    C18     C    0.30327   0.98910   0.48915   1.000
    C19     C    0.30328   0.98909   0.98916   1.000
    C20     C    0.80325   0.48911   0.48910   1.000
    C21     C    0.80326   0.48910   0.98915   1.000
    C22     C    0.80326   0.98910   0.48915   1.000
    C23     C    0.80327   0.98909   0.98916   1.000
    C24     C    0.03117   0.26121   0.26123   1.000
    C25     C    0.03118   0.26120   0.76124   1.000
    C26     C    0.03117   0.76120   0.26123   1.000
    C27     C    0.03119   0.76119   0.76123   1.000
    C28     C    0.53116   0.26120   0.26123   1.000
    C29     C    0.53117   0.26120   0.76124   1.000
    C30     C    0.53116   0.76120   0.26123   1.000
    C31     C    0.53117   0.76119   0.76124   1.000
    C32     C    0.20781   0.26086   0.48881   1.000
    C33     C    0.20782   0.26086   0.98881   1.000
    C34     C    0.20782   0.76086   0.48880   1.000
    C35     C    0.20782   0.76085   0.98881   1.000
    C36     C    0.70780   0.26086   0.48881   1.000
    C37     C    0.70781   0.26085   0.98881   1.000
    C38     C    0.70781   0.76086   0.48880   1.000
    C39     C    0.70782   0.76085   0.98881   1.000
    C40     C    0.20781   0.48878   0.26088   1.000
    C41     C    0.20782   0.48878   0.76088   1.000
    C42     C    0.20782   0.98878   0.26087   1.000
    C43     C    0.20783   0.98877   0.76088   1.000
    C44     C    0.70780   0.48879   0.26088   1.000
    C45     C    0.70781   0.48878   0.76089   1.000
    C46     C    0.70781   0.98878   0.26087   1.000
    C47     C    0.70782   0.98877   0.76088   1.000
    C48     C    0.19674   0.01091   0.01089   1.000
    C49     C    0.19674   0.01090   0.51090   1.000
    C50     C    0.19674   0.51090   0.01090   1.000
    C51     C    0.19675   0.51089   0.51090   1.000
    C52     C    0.69673   0.01090   0.01089   1.000
    C53     C    0.69673   0.01090   0.51090   1.000
    C54     C    0.69673   0.51090   0.01090   1.000
    C55     C    0.69674   0.51089   0.51090   1.000
    C56     C    0.46883   0.23880   0.23881   1.000
    C57     C    0.46885   0.23880   0.73882   1.000
    C58     C    0.46883   0.73880   0.23881   1.000
    C59     C    0.46885   0.73879   0.73882   1.000
    C60     C    0.96882   0.23880   0.23881   1.000
    C61     C    0.96883   0.23880   0.73882   1.000
    C62     C    0.96882   0.73880   0.23881   1.000
    C63     C    0.96884   0.73879   0.73882   1.000
    O64     O    0.34586   0.27631   0.47387   1.000
    O65     O    0.34587   0.27630   0.97388   1.000
    O66     O    0.34586   0.77631   0.47387   1.000
    O67     O    0.34587   0.77629   0.97388   1.000
    O68     O    0.68067   0.97340   0.97343   1.000
    O69     O    0.13385   0.06500   0.06498   1.000
    O70     O    0.13385   0.06499   0.56499   1.000
    O71     O    0.13385   0.56499   0.06499   1.000
    O72     O    0.84585   0.27631   0.47387   1.000
    O73     O    0.84586   0.27630   0.97388   1.000
    O74     O    0.84585   0.77631   0.47387   1.000
    O75     O    0.84586   0.77629   0.97387   1.000
    O76     O    0.30065   0.18536   0.06570   1.000
    O77     O    0.30066   0.18535   0.56571   1.000
    O78     O    0.30065   0.68536   0.06570   1.000
    O79     O    0.30066   0.68535   0.56570   1.000
    O80     O    0.80064   0.18536   0.06570   1.000
    O81     O    0.80065   0.18535   0.56571   1.000
    O82     O    0.80064   0.68536   0.06570   1.000
    O83     O    0.80065   0.68535   0.56570   1.000
    O84     O    0.34586   0.47384   0.27633   1.000
    O85     O    0.34587   0.47384   0.77634   1.000
    O86     O    0.34585   0.97385   0.27634   1.000
    O87     O    0.34587   0.97384   0.77634   1.000
    O88     O    0.84584   0.47385   0.27633   1.000
    O89     O    0.84586   0.47384   0.77634   1.000
    O90     O    0.84585   0.97385   0.27634   1.000
    O91     O    0.84586   0.97384   0.77634   1.000
    O92     O    0.30063   0.06570   0.18539   1.000
    O93     O    0.30064   0.06569   0.68540   1.000
    O94     O    0.30064   0.56569   0.18539   1.000
    O95     O    0.30065   0.56568   0.68539   1.000
    O96     O    0.80062   0.06569   0.18539   1.000
    O97     O    0.80063   0.06569   0.68540   1.000
    O98     O    0.80062   0.56569   0.18539   1.000
    O99     O    0.80064   0.56568   0.68539   1.000
    O100    O    0.31933   0.02660   0.02662   1.000
    O101    O    0.31934   0.02659   0.52662   1.000
    O102    O    0.31933   0.52660   0.02662   1.000
    O103    O    0.31935   0.52659   0.52662   1.000
    O104    O    0.81932   0.02660   0.02662   1.000
    O105    O    0.81933   0.02659   0.52662   1.000
    O106    O    0.81932   0.52660   0.02662   1.000
    O107    O    0.81934   0.52659   0.52662   1.000
    O108    O    0.36616   0.43501   0.43505   1.000
    O109    O    0.36616   0.43501   0.93506   1.000
    O110    O    0.36616   0.93501   0.43506   1.000
    O111    O    0.36617   0.93500   0.93506   1.000
    O112    O    0.86614   0.43502   0.43505   1.000
    O113    O    0.86615   0.43501   0.93506   1.000
    O114    O    0.86614   0.93501   0.43506   1.000
    O115    O    0.86616   0.93500   0.93506   1.000
    O116    O    0.12180   0.22416   0.22417   1.000
    O117    O    0.12181   0.22415   0.72418   1.000
    O118    O    0.12180   0.72415   0.22418   1.000
    O119    O    0.12181   0.72414   0.72418   1.000
    O120    O    0.62179   0.22415   0.22417   1.000
    O121    O    0.62180   0.22415   0.72418   1.000
    O122    O    0.62178   0.72415   0.22418   1.000
    O123    O    0.62180   0.72414   0.72418   1.000
    O124    O    0.48576   0.31537   0.31539   1.000
    O125    O    0.48577   0.31537   0.81540   1.000
    O126    O    0.48575   0.81538   0.31539   1.000
    O127    O    0.48577   0.81536   0.81540   1.000
    O128    O    0.98574   0.31538   0.31539   1.000
    O129    O    0.98576   0.31537   0.81540   1.000
    O130    O    0.98574   0.81538   0.31500   1.000
    O131    O    0.98576   0.81536   0.81540   1.000
    O132    O    0.15415   0.22370   0.02617   1.000
    O133    O    0.15415   0.22369   0.52618   1.000
    O134    O    0.15415   0.72369   0.02617   1.000
    O135    O    0.15416   0.72368   0.52617   1.000
    O136    O    0.65414   0.22370   0.02617   1.000
    O137    O    0.65415   0.22369   0.52618   1.000
    O138    O    0.65414   0.72369   0.02617   1.000
    O139    O    0.65415   0.72368   0.52617   1.000
    O140    O    0.19936   0.31465   0.43434   1.000
    O141    O    0.19936   0.31464   0.93435   1.000
    O142    O    0.19936   0.81465   0.43434   1.000
    O143    O    0.19937   0.81464   0.93435   1.000
    O144    O    0.69934   0.31465   0.43430   1.000
    O145    O    0.69935   0.31464   0.93435   1.000
    O146    O    0.69934   0.81465   0.43435   1.000
    O147    O    0.69936   0.81464   0.93435   1.000
    O148    O    0.15415   0.02616   0.22370   1.000
    O149    O    0.15416   0.02615   0.72371   1.000
    O150    O    0.15415   0.52616   0.22371   1.000
    O151    O    0.15416   0.52615   0.72371   1.000
    O152    O    0.65414   0.02615   0.22370   1.000
    O153    O    0.65415   0.02615   0.72371   1.000
    O154    O    0.65414   0.52616   0.22371   1.000
    O155    O    0.65415   0.52615   0.72370   1.000
    O156    O    0.19936   0.43431   0.31466   1.000
    O157    O    0.19937   0.43431   0.81467   1.000
    O158    O    0.19937   0.93431   0.31466   1.000
    O159    O    0.19938   0.93430   0.81466   1.000
    O160    O    0.69935   0.43432   0.31466   1.000
    O161    O    0.69936   0.43431   0.81467   1.000
    O162    O    0.69936   0.93431   0.31466   1.000
    O163    O    0.69937   0.93430   0.81466   1.000
    O164    O    0.18067   0.47340   0.47340   1.000
    O165    O    0.18068   0.47340   0.97343   1.000
    O166    O    0.18067   0.97341   0.47343   1.000
    O167    O    0.18068   0.97340   0.97343   1.000
    O168    O    0.68066   0.47341   0.47343   1.000
    O169    O    0.68067   0.47340   0.97343   1.000
    O170    O    0.68066   0.97341   0.47343   1.000
    O171    O    0.13386   0.56498   0.56499   1.000
    O172    O    0.63384   0.06499   0.06498   1.000
    O173    O    0.63384   0.06499   0.56499   1.000
    O174    O    0.63384   0.56499   0.06499   1.000
    O175    O    0.63385   0.56498   0.56500   1.000
    O176    O    0.37821   0.27585   0.27586   1.000
    O177    O    0.37822   0.27585   0.77587   1.000
    O178    O    0.37820   0.77585   0.27580   1.000
    O179    O    0.37822   0.77584   0.77587   1.000
    O180    O    0.87819   0.27586   0.27586   1.000
    O181    O    0.87821   0.27585   0.77587   1.000
    O182    O    0.87819   0.77585   0.27587   1.000
    O183    O    0.87821   0.77584   0.77587   1.000
    O184    O    0.01425   0.18463   0.18465   1.000
    O185    O    0.01426   0.18462   0.68466   1.000
    O186    O    0.01425   0.68463   0.18465   1.000
    O187    O    0.01426   0.68462   0.68465   1.000
    O188    O    0.51424   0.18463   0.18460   1.000
    O189    O    0.51425   0.18463   0.68460   1.000
    O190    O    0.51424   0.68463   0.18465   1.000
    O191    O    0.51425   0.68462   0.68466   1.000
loop_
    _geom_bond_atom_site_label_1
    _geom_bond_atom_site_label_2
    _geom_bond_distance
    _geom_bond_site_symmetry_2
    _ccdc_geom_bond_type
    C48    O69       1.26794      .   S
    C48    O167      1.26494  1_544   S
    C48    C19       1.54583  1_544   S
    C52    O172      1.26794      .   S
    C52    O68       1.26491  1_544   S
    C52    C23       1.54583  1_544   S
    C50    O71       1.26795      .   S
    C50    O165      1.26507  1_554   S
    C50    C17       1.54568  1_554   S
    C54    O174      1.26796      .   S
    C54    O169      1.26508  1_554   S
    C54    C21       1.54566  1_554   S
    C2     O78       1.26847      .   S
    C2     O67       1.26492  1_554   S
    C2     C35       1.54465  1_554   S
    C0     O76       1.26850      .   S
    C0     O65       1.26492  1_554   S
    C0     C33       1.54465  1_554   S
    C6     O82       1.26808      .   S
    C6     O75       1.26499  1_554   S
    C6     C39       1.54501  1_554   S
    C4     O80       1.26801      .   S
    C4     O73       1.26499  1_554   S
    C4     C37       1.54513  1_554   S
    O132   C33       1.26499  1_554   S
    O134   C35       1.26500  1_554   S
    O136   C37       1.26499  1_554   S
    O138   C39       1.26499  1_554   S
    O100   C19       1.26491  1_544   S
    O102   C17       1.26505  1_554   S
    O104   C23       1.26492  1_544   S
    O106   C21       1.26507  1_554   S
    O188   C56       1.26872      .   S
    O184   C60       1.26805  1_455   S
    O190   C58       1.26809      .   S
    O186   C62       1.26805  1_455   S
    O98    C14       1.26796      .   S
    O96    C12       1.26803      .   S
    O94    C10       1.26797      .   S
    O92    C8        1.26802      .   S
    O152   C46       1.26513  1_545   S
    O148   C42       1.26513  1_545   S
    O150   C40       1.26500      .   S
    O154   C44       1.26500      .   S
    O120   C28       1.26487      .   S
    O116   C24       1.26487      .   S
    O122   C30       1.26485      .   S
    O118   C26       1.26485      .   S
    C62    C26       1.54575  1_655   S
    C62    O182      1.26487      .   S
    C60    C24       1.54575  1_655   S
    C60    O180      1.26487      .   S
    C58    C30       1.54538      .   S
    C58    O178      1.26475      .   S
    C56    C28       1.54539      .   S
    C56    O176      1.26485      .   S
    C10    C40       1.54538      .   S
    C10    O84       1.26504      .   S
    C14    C44       1.54538      .   S
    C14    O88       1.26503      .   S
    C12    C46       1.54529  1_545   S
    C12    O90       1.26517  1_545   S
    C8     C42       1.54528  1_545   S
    C8     O86       1.26519  1_545   S
    C46    O162      1.26808      .   S
    C42    O158      1.26809      .   S
    C44    O160      1.26804      .   S
    C40    O156      1.26805      .   S
    C24    O128      1.26804  1_455   S
    C26    O130      1.26320  1_455   S
    C28    O124      1.26808      .   S
    C30    O126      1.26811      .   S
    O144   C36       1.26866      .   S
    O140   C32       1.26814      .   S
    O142   C34       1.26807      .   S
    O146   C38       1.26794      .   S
    O112   C20       1.26752      .   S
    O108   C16       1.26793      .   S
    O114   C22       1.26791      .   S
    O110   C18       1.26791      .   S
    O164   C51       1.26549      .   S
    O166   C49       1.26503  1_565   S
    O170   C53       1.26505  1_565   S
    O168   C55       1.26505      .   S
    O64    C1        1.26502      .   S
    O74    C7        1.26502      .   S
    O72    C5        1.26502      .   S
    O66    C3        1.26502      .   S
    C34    C3        1.54541      .   S
    C34    O135      1.26501      .   S
    C38    C7        1.54541      .   S
    C38    O139      1.26502      .   S
    C36    C5        1.54531      .   S
    C36    O137      1.26501      .   S
    C32    C1        1.54529      .   S
    C32    O133      1.26502      .   S
    C20    C55       1.54527      .   S
    C20    O107      1.26576      .   S
    C16    C51       1.54544      .   S
    C16    O103      1.26521      .   S
    C22    C53       1.54557  1_565   S
    C22    O105      1.26503  1_565   S
    C18    C49       1.54558  1_565   S
    C18    O101      1.26502  1_565   S
    C53    O173      1.26793      .   S
    C51    O171      1.26796      .   S
    C49    O70       1.26793      .   S
    C55    O175      1.26805      .   S
    C1     O77       1.26812      .   S
    C3     O79       1.26803      .   S
    C5     O81       1.26813      .   S
    C7     O83       1.26802      .   S
    O189   C57       1.26886      .   S
    O187   C63       1.26818  1_455   S
    O191   C59       1.26808      .   S
    O185   C61       1.26806  1_455   S
    O95    C11       1.26805      .   S
    O99    C15       1.26805      .   S
    O93    C9        1.26803      .   S
    O97    C13       1.26805      .   S
    O155   C45       1.26528      .   S
    O153   C47       1.26515  1_545   S
    O151   C41       1.26498      .   S
    O149   C43       1.26516  1_545   S
    O121   C29       1.26487      .   S
    O123   C31       1.26487      .   S
    O119   C27       1.26485      .   S
    O117   C25       1.26487      .   S
    C63    C27       1.54563  1_655   S
    C63    O183      1.26485      .   S
    C61    C25       1.54575  1_655   S
    C61    O181      1.26485      .   S
    C59    C31       1.54541      .   S
    C59    O179      1.26487      .   S
    C57    C29       1.54540      .   S
    C57    O177      1.26485      .   S
    C11    C41       1.54542      .   S
    C11    O85       1.26503      .   S
    C15    C45       1.54539      .   S
    C15    O89       1.26503      .   S
    C9     C43       1.54529  1_545   S
    C9     O87       1.26503  1_545   S
    C13    C47       1.54529  1_545   S
    C13    O91       1.26503  1_545   S
    C47    O163      1.26802      .   S
    C43    O159      1.26801      .   S
    C41    O157      1.26813      .   S
    C45    O161      1.26803      .   S
    C27    O131      1.26818  1_455   S
    C25    O129      1.26806  1_455   S
    C29    O125      1.26809      .   S
    C31    O127      1.26808      .   S
    O141   C33       1.26802      .   S
    O143   C35       1.26800      .   S
    O145   C37       1.26802      .   S
    O147   C39       1.26801      .   S
    O115   C23       1.26803      .   S
    O113   C21       1.26795      .   S
    O109   C17       1.26795      .   S
    O111   C19       1.26803      .   S
