# CIF file generated by openbabel 2.4.90, see http://openbabel.sf.net
data_I
_chemical_name_common ''
_cell_length_a 17.555
_cell_length_b 17.545
_cell_length_c 15.913
_cell_angle_alpha 90
_cell_angle_beta 89.999
_cell_angle_gamma 92.602
_space_group_name_H-M_alt 'P 1'
_space_group_name_Hall 'P 1'
loop_
    _symmetry_equiv_pos_as_xyz
    x,y,z
loop_
    _atom_site_label
    _atom_site_type_symbol
    _atom_site_fract_x
    _atom_site_fract_y
    _atom_site_fract_z
    _atom_site_occupancy
    N0      N    0.28359   0.47716   0.23047   1.000
    N1      N    0.28359   0.97716   0.23047   1.000
    N2      N    0.78360   0.47716   0.23047   1.000
    N3      N    0.78360   0.97716   0.23047   1.000
    N4      N    0.21642   0.02280   0.73044   1.000
    N5      N    0.21642   0.52280   0.73044   1.000
    N6      N    0.71643   0.02280   0.73044   1.000
    N7      N    0.71643   0.52280   0.73044   1.000
    N8      N    0.47734   0.28350   0.73047   1.000
    N9      N    0.47734   0.78349   0.73045   1.000
    N10     N    0.97734   0.28350   0.73046   1.000
    N11     N    0.97734   0.78349   0.73046   1.000
    N12     N    0.02268   0.21648   0.23051   1.000
    N13     N    0.02268   0.71647   0.23051   1.000
    N14     N    0.52268   0.21647   0.23051   1.000
    N15     N    0.52268   0.71647   0.23051   1.000
    N16     N    0.37353   0.12648   0.49044   1.000
    N17     N    0.37353   0.62648   0.49044   1.000
    N18     N    0.87354   0.12648   0.49044   1.000
    N19     N    0.87354   0.62647   0.49044   1.000
    N20     N    0.12648   0.37348   0.99041   1.000
    N21     N    0.12648   0.87347   0.99041   1.000
    N22     N    0.62649   0.37348   0.99041   1.000
    N23     N    0.62649   0.87347   0.99041   1.000
    Zr24    Zr   0.27891   0.22119   0.65689   1.000
    O25     O    0.35397   0.23415   0.68616   1.000
    O26     O    0.31912   0.18096   0.60581   1.000
    O27     O    0.26588   0.14614   0.68614   1.000
    Zr28    Zr   0.22514   0.27502   0.80427   1.000
    O29     O    0.13584   0.28554   0.77340   1.000
    O30     O    0.18430   0.31576   0.85988   1.000
    O31     O    0.21450   0.36428   0.77338   1.000
    Zr32    Zr   0.22514   0.77501   0.80427   1.000
    O33     O    0.18430   0.81575   0.85988   1.000
    O34     O    0.13585   0.78553   0.77340   1.000
    O35     O    0.21450   0.86428   0.77338   1.000
    Zr36    Zr   0.72515   0.27502   0.80427   1.000
    O37     O    0.63585   0.28554   0.77340   1.000
    O38     O    0.68431   0.31576   0.85988   1.000
    O39     O    0.71451   0.36428   0.77338   1.000
    Zr40    Zr   0.72515   0.77501   0.80427   1.000
    O41     O    0.63585   0.78553   0.77339   1.000
    O42     O    0.68431   0.81575   0.85988   1.000
    O43     O    0.71451   0.86428   0.77338   1.000
    Zr44    Zr   0.77892   0.22119   0.65689   1.000
    O45     O    0.76589   0.14614   0.68614   1.000
    O46     O    0.81913   0.18096   0.60581   1.000
    O47     O    0.85398   0.23415   0.68615   1.000
    Zr48    Zr   0.51151   0.48874   0.30357   1.000
    O49     O    0.45866   0.54143   0.36867   1.000
    O50     O    0.50700   0.57152   0.28209   1.000
    O51     O    0.42861   0.49304   0.28208   1.000
    Zr52    Zr   0.01151   0.98874   0.30357   1.000
    O53     O    0.95867   0.04143   0.36867   1.000
    O54     O    0.92862   0.99304   0.28208   1.000
    O55     O    0.00700   0.07152   0.28209   1.000
    Zr56    Zr   0.01151   0.48874   0.30357   1.000
    O57     O    0.00700   0.57152   0.28209   1.000
    O58     O    0.95867   0.54143   0.36867   1.000
    O59     O    0.92862   0.49304   0.28208   1.000
    Zr60    Zr   0.22110   0.27878   0.15690   1.000
    O61     O    0.14604   0.26582   0.18617   1.000
    O62     O    0.23413   0.35383   0.18615   1.000
    O63     O    0.18089   0.31902   0.10581   1.000
    Zr64    Zr   0.22110   0.77877   0.15690   1.000
    O65     O    0.18090   0.81901   0.10581   1.000
    O66     O    0.14604   0.76581   0.18617   1.000
    O67     O    0.23413   0.85382   0.18615   1.000
    Zr68    Zr   0.72111   0.27878   0.15690   1.000
    O69     O    0.64605   0.26582   0.18617   1.000
    O70     O    0.73414   0.35383   0.18615   1.000
    O71     O    0.68090   0.31902   0.10581   1.000
    Zr72    Zr   0.72111   0.77877   0.15690   1.000
    O73     O    0.68091   0.81901   0.10581   1.000
    O74     O    0.64605   0.76581   0.18617   1.000
    O75     O    0.73414   0.85382   0.18615   1.000
    Zr76    Zr   0.27487   0.22495   0.30430   1.000
    O77     O    0.31571   0.18421   0.35991   1.000
    O78     O    0.28551   0.13568   0.27341   1.000
    O79     O    0.36416   0.21444   0.27343   1.000
    Zr80    Zr   0.27487   0.72494   0.30430   1.000
    O81     O    0.36417   0.71443   0.27343   1.000
    O82     O    0.31571   0.68420   0.35991   1.000
    O83     O    0.28551   0.63568   0.27341   1.000
    Zr84    Zr   0.77488   0.22495   0.30430   1.000
    O85     O    0.81572   0.18421   0.35991   1.000
    O86     O    0.78552   0.13568   0.27341   1.000
    O87     O    0.86417   0.21444   0.27343   1.000
    Zr88    Zr   0.77488   0.72494   0.30430   1.000
    O89     O    0.86417   0.71443   0.27343   1.000
    O90     O    0.81572   0.68420   0.35991   1.000
    O91     O    0.78552   0.63568   0.27341   1.000
    Zr92    Zr   0.98851   0.51122   0.80354   1.000
    O93     O    0.04135   0.45853   0.86865   1.000
    O94     O    0.99302   0.42844   0.78205   1.000
    O95     O    0.07140   0.50692   0.78205   1.000
    Zr96    Zr   0.98851   0.01122   0.80354   1.000
    O97     O    0.04135   0.95852   0.86865   1.000
    O98     O    0.99302   0.92844   0.78206   1.000
    O99     O    0.07140   0.00691   0.78205   1.000
    Zr100   Zr   0.48851   0.51122   0.80354   1.000
    O101    O    0.57141   0.50692   0.78205   1.000
    O102    O    0.54136   0.45853   0.86865   1.000
    O103    O    0.49302   0.42844   0.78206   1.000
    Zr104   Zr   0.48851   0.01122   0.80354   1.000
    O105    O    0.54136   0.95852   0.86865   1.000
    O106    O    0.49302   0.92844   0.78205   1.000
    O107    O    0.57141   0.00691   0.78205   1.000
    Zr108   Zr   0.27891   0.72118   0.65689   1.000
    O109    O    0.31912   0.68095   0.60581   1.000
    O110    O    0.26588   0.64613   0.68614   1.000
    O111    O    0.35398   0.73414   0.68614   1.000
    Zr112   Zr   0.77892   0.72118   0.65689   1.000
    O113    O    0.81913   0.68095   0.60581   1.000
    O114    O    0.85398   0.73414   0.68614   1.000
    O115    O    0.76589   0.64613   0.68614   1.000
    Zr116   Zr   0.51151   0.98874   0.30357   1.000
    O117    O    0.45866   0.04143   0.36867   1.000
    O118    O    0.42861   0.99304   0.28208   1.000
    O119    O    0.50700   0.07152   0.28209   1.000
loop_
    _geom_bond_atom_site_label_1
    _geom_bond_atom_site_label_2
    _geom_bond_distance
    _geom_bond_site_symmetry_2
    _ccdc_geom_bond_type
    Zr24   O25       1.40635      .   S
    N8     O25       2.40145      .   S
    Zr24   O26       1.30476      .   S
    N16    O26       2.29771      .   S
    Zr24   O27       1.40556      .   S
    N4     O27       2.40067      .   S
    Zr28   O29       1.66094      .   S
    N10    O29       2.86387  1_655   S
    Zr28   O30       1.36171      .   S
    N20    O30       2.54240      .   S
    Zr28   O31       1.66001      .   S
    N5     O31       2.86261      .   S
    Zr32   O33       1.36171      .   S
    N21    O33       2.54241      .   S
    Zr32   O34       1.66094      .   S
    N11    O34       2.86387  1_655   S
    Zr32   O35       1.66005      .   S
    N4     O35       2.86272  1_545   S
    Zr36   O37       1.66097      .   S
    N8     O37       2.86394      .   S
    Zr36   O38       1.36170      .   S
    N22    O38       2.54241      .   S
    Zr36   O39       1.66001      .   S
    N7     O39       2.86261      .   S
    Zr40   O41       1.66099      .   S
    N9     O41       2.86400      .   S
    Zr40   O42       1.36170      .   S
    N23    O42       2.54240      .   S
    Zr40   O43       1.66005      .   S
    N6     O43       2.86272  1_545   S
    Zr44   O45       1.40555      .   S
    N6     O45       2.40066      .   S
    Zr44   O46       1.30476      .   S
    N18    O46       2.29771      .   S
    Zr44   O47       1.40629      .   S
    N10    O47       2.40129      .   S
    Zr48   O49       1.69300      .   S
    N17    O49       2.90115      .   S
    Zr48   O50       1.49761      .   S
    N15    O50       2.67458      .   S
    Zr48   O51       1.50010      .   S
    N0     O51       2.67754      .   S
    Zr52   O53       1.69301  1_465   S
    N18    O53       2.90116      .   S
    Zr52   O54       1.50004  1_455   S
    N3     O54       2.67746      .   S
    Zr52   O55       1.49769  1_565   S
    N12    O55       2.67465      .   S
    Zr56   O57       1.49760      .   S
    N13    O57       2.67456      .   S
    Zr56   O58       1.69295  1_455   S
    N19    O58       2.90110      .   S
    Zr56   O59       1.50003  1_455   S
    N2     O59       2.67746      .   S
    Zr60   O61       1.40636      .   S
    N12    O61       2.40144      .   S
    Zr60   O62       1.40551      .   S
    N0     O62       2.40054      .   S
    Zr60   O63       1.30488      .   S
    N20    O63       2.29799  1_556   S
    Zr64   O65       1.30488      .   S
    N21    O65       2.29799  1_556   S
    Zr64   O66       1.40636      .   S
    N13    O66       2.40144      .   S
    Zr64   O67       1.40555      .   S
    N1     O67       2.40066      .   S
    Zr68   O69       1.40641      .   S
    N14    O69       2.40157      .   S
    Zr68   O70       1.40551      .   S
    N2     O70       2.40054      .   S
    Zr68   O71       1.30488      .   S
    N22    O71       2.29799  1_556   S
    Zr72   O73       1.30488      .   S
    N23    O73       2.29799  1_556   S
    Zr72   O74       1.40641      .   S
    N15    O74       2.40156      .   S
    Zr72   O75       1.40556      .   S
    N3     O75       2.40066      .   S
    Zr76   O77       1.36176      .   S
    N16    O77       2.54241      .   S
    Zr76   O78       1.66006      .   S
    N1     O78       2.86271  1_565   S
    Zr76   O79       1.66095      .   S
    N14    O79       2.86392      .   S
    Zr80   O81       1.66095      .   S
    N15    O81       2.86392      .   S
    Zr80   O82       1.36176      .   S
    N17    O82       2.54241      .   S
    Zr80   O83       1.66002      .   S
    N0     O83       2.86260      .   S
    Zr84   O85       1.36176      .   S
    N18    O85       2.54241      .   S
    Zr84   O86       1.66006      .   S
    N3     O86       2.86270  1_565   S
    Zr84   O87       1.66091      .   S
    N12    O87       2.86382  1_455   S
    Zr88   O89       1.66091      .   S
    N13    O89       2.86382  1_455   S
    Zr88   O90       1.36176      .   S
    N19    O90       2.54241      .   S
    Zr88   O91       1.66002      .   S
    N2     O91       2.86260      .   S
    Zr92   O93       1.69301  1_655   S
    N20    O93       2.90117      .   S
    Zr92   O94       1.49756      .   S
    N10    O94       2.67458      .   S
    Zr92   O95       1.49998  1_655   S
    N5     O95       2.67739      .   S
    Zr96   O97       1.69307  1_645   S
    N21    O97       2.90123      .   S
    Zr96   O98       1.49765  1_545   S
    N11    O98       2.67466      .   S
    Zr96   O99       1.49999  1_655   S
    N4     O99       2.67738      .   S
    Zr100  O101      1.50006      .   S
    N7     O101      2.67747      .   S
    Zr100  O102      1.69306      .   S
    N22    O102      2.90122      .   S
    Zr100  O103      1.49756      .   S
    N8     O103      2.67455      .   S
    Zr104  O105      1.69311  1_545   S
    N23    O105      2.90127      .   S
    Zr104  O106      1.49766  1_545   S
    N9     O106      2.67470      .   S
    Zr104  O107      1.50007      .   S
    N6     O107      2.67746      .   S
    Zr108  O109      1.30476      .   S
    N17    O109      2.29771      .   S
    Zr108  O110      1.40551      .   S
    N5     O110      2.40054      .   S
    Zr108  O111      1.40627      .   S
    N9     O111      2.40142      .   S
    Zr112  O113      1.30476      .   S
    N19    O113      2.29771      .   S
    Zr112  O114      1.40624      .   S
    N11    O114      2.40133      .   S
    Zr112  O115      1.40551      .   S
    N7     O115      2.40054      .   S
    Zr116  O117      1.69306  1_565   S
    N16    O117      2.90120      .   S
    Zr116  O118      1.50012      .   S
    N1     O118      2.67755      .   S
    Zr116  O119      1.49769  1_565   S
    N14    O119      2.67465      .   S
