# CIF file generated by openbabel 2.4.90, see http://openbabel.sf.net
data_I
_chemical_name_common ''
_cell_length_a 15.41
_cell_length_b 21.433
_cell_length_c 21.434
_cell_angle_alpha 119.984
_cell_angle_beta 89.984
_cell_angle_gamma 90.008
_space_group_name_H-M_alt 'P 1'
_space_group_name_Hall 'P 1'
loop_
    _symmetry_equiv_pos_as_xyz
    x,y,z
loop_
    _atom_site_label
    _atom_site_type_symbol
    _atom_site_fract_x
    _atom_site_fract_y
    _atom_site_fract_z
    _atom_site_occupancy
    C0      C    0.00031   0.21801   0.54070   1.000
    C1      C    0.50032   0.21801   0.54077   1.000
    C2      C    0.33361   0.32286   0.78190   1.000
    C3      C    0.83362   0.32286   0.78191   1.000
    C4      C    0.16688   0.45912   0.67705   1.000
    C5      C    0.66690   0.45912   0.67705   1.000
    C6      C    0.00025   0.78197   0.45915   1.000
    C7      C    0.50027   0.78198   0.45915   1.000
    C8      C    0.33365   0.67715   0.21803   1.000
    C9      C    0.83366   0.67716   0.21804   1.000
    C10     C    0.16689   0.54087   0.32290   1.000
    C11     C    0.66691   0.54087   0.32290   1.000
    C12     C    0.33310   0.67710   0.45915   1.000
    C13     C    0.83311   0.67710   0.45915   1.000
    C14     C    0.49973   0.54082   0.21802   1.000
    C15     C    0.99974   0.54082   0.21802   1.000
    C16     C    0.16641   0.78195   0.32287   1.000
    C17     C    0.66642   0.78195   0.32287   1.000
    C18     C    0.33315   0.32293   0.54087   1.000
    C19     C    0.83316   0.32293   0.54087   1.000
    C20     C    0.49971   0.45919   0.78196   1.000
    C21     C    0.99972   0.45919   0.78195   1.000
    C22     C    0.16638   0.21804   0.67712   1.000
    C23     C    0.66639   0.21804   0.67710   1.000
