# CIF file generated by openbabel 2.4.90, see http://openbabel.sf.net
data_I
_chemical_name_common ''
_cell_length_a 10.118
_cell_length_b 11.5265
_cell_length_c 14.927
_cell_angle_alpha 91.151
_cell_angle_beta 90.01
_cell_angle_gamma 90.045
_space_group_name_H-M_alt 'P 1'
_space_group_name_Hall 'P 1'
loop_
    _symmetry_equiv_pos_as_xyz
    x,y,z
loop_
    _atom_site_label
    _atom_site_type_symbol
    _atom_site_fract_x
    _atom_site_fract_y
    _atom_site_fract_z
    _atom_site_occupancy
    N0      N    0.77181   0.57107   0.44230   1.000
    N1      N    0.13587   0.04894   0.81985   1.000
    N2      N    0.16052   0.82433   0.32752   1.000
    N3      N    0.10084   0.25788   0.03074   1.000
    N4      N    0.33960   0.32418   0.82752   1.000
    N5      N    0.83946   0.17567   0.67248   1.000
    N6      N    0.72809   0.07067   0.94205   1.000
    N7      N    0.86410   0.95105   0.18015   1.000
    N8      N    0.89913   0.74211   0.96925   1.000
    N9      N    0.66037   0.67581   0.17248   1.000
    N10     N    0.71798   0.42265   0.94762   1.000
    N11     N    0.02511   0.47979   0.79285   1.000
    N12     N    0.47531   0.97983   0.29288   1.000
    N13     N    0.21787   0.07708   0.55240   1.000
    N14     N    0.39893   0.75771   0.53065   1.000
    N15     N    0.36398   0.54890   0.31982   1.000
    N16     N    0.27188   0.92932   0.05795   1.000
    N17     N    0.60104   0.24228   0.46934   1.000
    N18     N    0.78210   0.92292   0.44759   1.000
    N19     N    0.97486   0.52020   0.20714   1.000
    N20     N    0.28199   0.57733   0.05238   1.000
    N21     N    0.22816   0.42891   0.55769   1.000
    N22     N    0.52466   0.02016   0.70711   1.000
    N23     N    0.63599   0.45109   0.68018   1.000
    Zr24    Zr   0.00000   0.00000   1.00000   1.000
    O25     O    0.08697   0.96934   0.02242   1.000
    O26     O    0.95224   0.99029   0.05980   1.000
    O27     O    0.96088   0.91687   0.98781   1.000
    O28     O    0.04775   0.00971   0.94020   1.000
    O29     O    0.91302   0.03066   0.97757   1.000
    O30     O    0.03911   0.08313   0.01218   1.000
    Zr31    Zr   0.57196   0.74512   0.36834   1.000
    O32     O    0.64659   0.80258   0.39050   1.000
    O33     O    0.49997   0.68412   0.34873   1.000
    O34     O    0.63192   0.68398   0.39537   1.000
    O35     O    0.60878   0.72208   0.30505   1.000
    O36     O    0.53618   0.81941   0.33913   1.000
    O37     O    0.51622   0.75693   0.42258   1.000
    Zr38    Zr   0.38242   0.75936   0.19121   1.000
    O39     O    0.35337   0.81805   0.14624   1.000
    O40     O    0.38150   0.69302   0.23802   1.000
    O41     O    0.47271   0.72916   0.17960   1.000
    O42     O    0.34058   0.70030   0.14671   1.000
    O43     O    0.30287   0.78076   0.23217   1.000
    O44     O    0.41772   0.82831   0.22842   1.000
    Zr45    Zr   0.07195   0.75489   0.13173   1.000
    O46     O    0.03603   0.68061   0.16092   1.000
    O47     O    0.14654   0.69750   0.10954   1.000
    O48     O    0.13194   0.81615   0.10476   1.000
    O49     O    0.10882   0.77797   0.19500   1.000
    O50     O    0.01628   0.74303   0.07744   1.000
    O51     O    0.00000   0.81588   0.15131   1.000
    Zr52    Zr   0.88241   0.74069   0.30879   1.000
    O53     O    0.84062   0.79981   0.35328   1.000
    O54     O    0.91756   0.67173   0.27159   1.000
    O55     O    0.80281   0.71931   0.26783   1.000
    O56     O    0.97276   0.77092   0.32040   1.000
    O57     O    0.85334   0.68211   0.35383   1.000
    O58     O    0.88154   0.80700   0.26198   1.000
    Zr59    Zr   0.49998   0.49999   0.50000   1.000
    O60     O    0.45219   0.50969   0.44019   1.000
    O61     O    0.41303   0.46921   0.52234   1.000
    O62     O    0.53915   0.41693   0.48783   1.000
    O63     O    0.54777   0.49030   0.55981   1.000
    O64     O    0.46082   0.58306   0.51216   1.000
    O65     O    0.58694   0.53078   0.47766   1.000
    Zr66    Zr   1.00000   0.49999   1.00000   1.000
    O67     O    0.97131   0.58372   0.99510   1.000
    O68     O    0.09634   0.52181   0.01317   1.000
    O69     O    0.99363   0.49998   0.06904   1.000
    O70     O    0.00636   0.50000   0.93095   1.000
    O71     O    0.90364   0.47817   0.98683   1.000
    O72     O    0.02868   0.41627   0.00489   1.000
    Zr73    Zr   0.92802   0.24509   0.86826   1.000
    O74     O    0.85343   0.30248   0.89045   1.000
    O75     O    0.99997   0.18411   0.84868   1.000
    O76     O    0.96395   0.31938   0.83907   1.000
    O77     O    0.98369   0.25696   0.92255   1.000
    O78     O    0.89115   0.22202   0.80499   1.000
    O79     O    0.86803   0.18384   0.89524   1.000
    Zr80    Zr   0.11756   0.25930   0.69121   1.000
    O81     O    0.08241   0.32826   0.72841   1.000
    O82     O    0.15935   0.20017   0.64672   1.000
    O83     O    0.14664   0.31788   0.64617   1.000
    O84     O    0.02721   0.22907   0.67960   1.000
    O85     O    0.19716   0.28068   0.73217   1.000
    O86     O    0.11843   0.19299   0.73802   1.000
    Zr87    Zr   0.61755   0.24063   0.80880   1.000
    O88     O    0.61847   0.30697   0.76198   1.000
    O89     O    0.65939   0.29969   0.85329   1.000
    O90     O    0.69710   0.21923   0.76783   1.000
    O91     O    0.58225   0.17168   0.77158   1.000
    O92     O    0.52726   0.27083   0.82040   1.000
    O93     O    0.64660   0.18194   0.85376   1.000
    Zr94    Zr   0.42801   0.25486   0.63165   1.000
    O95     O    0.36805   0.31600   0.60462   1.000
    O96     O    0.48375   0.24306   0.57741   1.000
    O97     O    0.46379   0.18057   0.66086   1.000
    O98     O    0.50000   0.31587   0.65127   1.000
    O99     O    0.35338   0.19740   0.60950   1.000
    O100    O    0.39119   0.27791   0.69494   1.000
    Zr101   Zr   0.49999   0.00000   0.50000   1.000
    O102    O    0.40360   0.02175   0.51318   1.000
    O103    O    0.52874   0.08377   0.49513   1.000
    O104    O    0.50622   0.99998   0.56902   1.000
    O105    O    0.59637   0.97825   0.48682   1.000
    O106    O    0.47124   0.91622   0.50487   1.000
    O107    O    0.49375   0.00002   0.43098   1.000
loop_
    _geom_bond_atom_site_label_1
    _geom_bond_atom_site_label_2
    _geom_bond_distance
    _geom_bond_site_symmetry_2
    _ccdc_geom_bond_type
    Zr24   O25       1.00819  1_546   S
    N16    O25       2.00129      .   S
    Zr24   O26       1.02319  1_446   S
    N7     O26       2.06394      .   S
    Zr24   O27       1.04899  1_445   S
    N8     O27       2.12142      .   S
    Zr24   O28       1.02312      .   S
    N1     O28       2.06382      .   S
    Zr24   O29       1.00827  1_455   S
    N6     O29       2.00144      .   S
    Zr24   O30       1.04889  1_556   S
    N3     O30       2.12127      .   S
    Zr31   O32       1.05287      .   S
    N18    O32       2.11639      .   S
    Zr31   O33       1.04959      .   S
    N15    O33       2.11617      .   S
    Zr31   O34       1.01958      .   S
    N0     O34       2.05603      .   S
    Zr31   O35       1.04504      .   S
    N9     O35       2.10504      .   S
    Zr31   O36       1.03435      .   S
    N12    O36       2.08038      .   S
    Zr31   O37       0.99394      .   S
    N14    O37       2.00278      .   S
    Zr38   O39       1.00644      .   S
    N16    O39       2.03243      .   S
    Zr38   O40       1.04619      .   S
    N15    O40       2.08887      .   S
    Zr38   O41       0.99196      .   S
    N9     O41       1.99848      .   S
    Zr38   O42       1.03203      .   S
    N20    O42       2.06428      .   S
    Zr38   O43       1.03780      .   S
    N2     O43       2.07980      .   S
    Zr38   O44       1.02448      .   S
    N12    O44       2.06069      .   S
    Zr45   O46       1.03427      .   S
    N19    O46       2.08022  1_655   S
    Zr45   O47       1.05305      .   S
    N20    O47       2.11685      .   S
    Zr45   O48       1.01977      .   S
    N16    O48       2.05634      .   S
    Zr45   O49       1.04472      .   S
    N2     O49       2.10446      .   S
    Zr45   O50       0.99402      .   S
    N8     O50       2.00294  1_656   S
    Zr45   O51       1.04979      .   S
    N7     O51       2.11665  1_655   S
    Zr52   O53       1.03273      .   S
    N18    O53       2.06575      .   S
    Zr52   O54       1.02447      .   S
    N19    O54       2.06070      .   S
    Zr52   O55       1.03762      .   S
    N9     O55       2.07938      .   S
    Zr52   O56       0.99205      .   S
    N2     O56       1.99866  1_455   S
    Zr52   O57       1.00620      .   S
    N0     O57       2.03206      .   S
    Zr52   O58       1.04601      .   S
    N7     O58       2.08847      .   S
    Zr59   O60       1.02343      .   S
    N15    O60       2.06437      .   S
    Zr59   O61       1.00773      .   S
    N21    O61       2.00050      .   S
    Zr59   O62       1.04899      .   S
    N17    O62       2.12145      .   S
    Zr59   O63       1.02343      .   S
    N23    O63       2.06437      .   S
    Zr59   O64       1.04899      .   S
    N14    O64       2.12147      .   S
    Zr59   O65       1.00773      .   S
    N0     O65       2.00049      .   S
    Zr66   O67       1.01201      .   S
    N8     O67       2.01140      .   S
    Zr66   O68       1.02457  1_656   S
    N20    O68       2.06474      .   S
    Zr66   O69       1.03267  1_556   S
    N19    O69       2.07860      .   S
    Zr66   O70       1.03267  1_655   S
    N11    O70       2.07860      .   S
    Zr66   O71       1.02466      .   S
    N10    O71       2.06488      .   S
    Zr66   O72       1.01196  1_656   S
    N3     O72       2.01131      .   S
    Zr73   O74       1.05306      .   S
    N10    O74       2.11687      .   S
    Zr73   O75       1.04978      .   S
    N1     O75       2.11664  1_455   S
    Zr73   O76       1.03427      .   S
    N11    O76       2.08022  1_455   S
    Zr73   O77       0.99401      .   S
    N3     O77       2.00292  1_454   S
    Zr73   O78       1.04471      .   S
    N5     O78       2.10443      .   S
    Zr73   O79       1.01977      .   S
    N6     O79       2.05634      .   S
    Zr80   O81       1.02447      .   S
    N11    O81       2.06071      .   S
    Zr80   O82       1.03273      .   S
    N13    O82       2.06575      .   S
    Zr80   O83       1.00620      .   S
    N21    O83       2.03207      .   S
    Zr80   O84       0.99203      .   S
    N5     O84       1.99864  1_655   S
    Zr80   O85       1.03761      .   S
    N4     O85       2.07938      .   S
    Zr80   O86       1.04600      .   S
    N1     O86       2.08845      .   S
    Zr87   O88       1.04621      .   S
    N23    O88       2.08888      .   S
    Zr87   O89       1.03202      .   S
    N10    O89       2.06427      .   S
    Zr87   O90       1.03782      .   S
    N5     O90       2.07985      .   S
    Zr87   O91       1.02450      .   S
    N22    O91       2.06071      .   S
    Zr87   O92       0.99195      .   S
    N4     O92       1.99846      .   S
    Zr87   O93       1.00643      .   S
    N6     O93       2.03241      .   S
    Zr94   O95       1.01957      .   S
    N21    O95       2.05601      .   S
    Zr94   O96       0.99394      .   S
    N17    O96       2.00279      .   S
    Zr94   O97       1.03434      .   S
    N22    O97       2.08035      .   S
    Zr94   O98       1.04960      .   S
    N23    O98       2.11618      .   S
    Zr94   O99       1.05285      .   S
    N13    O99       2.11634      .   S
    Zr94   O100      1.04507      .   S
    N4     O100      2.10508      .   S
    Zr101  O102      1.02522      .   S
    N13    O102      2.06599      .   S
    Zr101  O103      1.01225      .   S
    N17    O103      2.01190      .   S
    Zr101  O104      1.03223  1_545   S
    N22    O104      2.07804  1_545   S
    Zr101  O105      1.02522  1_545   S
    N18    O105      2.06598      .   S
    Zr101  O106      1.01231  1_545   S
    N14    O106      2.01200      .   S
    Zr101  O107      1.03226      .   S
    N12    O107      2.07810  1_565   S
