# CIF file generated by openbabel 2.4.90, see http://openbabel.sf.net
data_I
_chemical_name_common ''
_cell_length_a 23.716
_cell_length_b 14.398
_cell_length_c 17.462
_cell_angle_alpha 89.922
_cell_angle_beta 93.421
_cell_angle_gamma 87.6
_space_group_name_H-M_alt 'P 1'
_space_group_name_Hall 'P 1'
loop_
    _symmetry_equiv_pos_as_xyz
    x,y,z
loop_
    _atom_site_label
    _atom_site_type_symbol
    _atom_site_fract_x
    _atom_site_fract_y
    _atom_site_fract_z
    _atom_site_occupancy
    Zr0     Zr   0.00159   0.63662   0.98508   1.000
    Zr1     Zr   0.50113   0.63620   0.98445   1.000
    Zr2     Zr   0.00504   0.36007   0.01662   1.000
    Zr3     Zr   0.50527   0.35960   0.01620   1.000
    Zr4     Zr   0.00286   0.86060   0.48441   1.000
    Zr5     Zr   0.50293   0.86128   0.48404   1.000
    Zr6     Zr   0.99834   0.13649   0.51627   1.000
    Zr7     Zr   0.49804   0.13726   0.51611   1.000
    Zr8     Zr   0.99681   0.43016   0.86166   1.000
    Zr9     Zr   0.49831   0.42991   0.86163   1.000
    Zr10    Zr   0.99253   0.30212   0.59702   1.000
    Zr11    Zr   0.49516   0.30278   0.59699   1.000
    Zr12    Zr   0.00681   0.56640   0.13990   1.000
    Zr13    Zr   0.50614   0.56686   0.13913   1.000
    Zr14    Zr   0.00880   0.69422   0.40467   1.000
    Zr15    Zr   0.50766   0.69463   0.40422   1.000
    Zr16    Zr   0.99372   0.06762   0.36129   1.000
    Zr17    Zr   0.49387   0.06966   0.36149   1.000
    Zr18    Zr   0.99943   0.19379   0.09614   1.000
    Zr19    Zr   0.50163   0.19303   0.09597   1.000
    Zr20    Zr   0.00814   0.92874   0.63900   1.000
    Zr21    Zr   0.50431   0.92928   0.63838   1.000
    Zr22    Zr   0.00753   0.80153   0.90427   1.000
    Zr23    Zr   0.49645   0.80199   0.90240   1.000
    Zr24    Zr   0.99496   0.49662   0.90980   1.000
    Zr25    Zr   0.49616   0.49613   0.91003   1.000
    Zr26    Zr   0.00213   0.34510   0.88394   1.000
    Zr27    Zr   0.50366   0.34482   0.88372   1.000
    Zr28    Zr   0.99498   0.22160   0.62906   1.000
    Zr29    Zr   0.49851   0.22228   0.62910   1.000
    Zr30    Zr   0.99243   0.31255   0.52461   1.000
    Zr31    Zr   0.49373   0.31311   0.52449   1.000
    Zr32    Zr   0.00536   0.49954   0.09210   1.000
    Zr33    Zr   0.50354   0.50030   0.09099   1.000
    Zr34    Zr   0.00545   0.65136   0.11732   1.000
    Zr35    Zr   0.50618   0.65176   0.11672   1.000
    Zr36    Zr   0.00741   0.77487   0.37290   1.000
    Zr37    Zr   0.50619   0.77540   0.37260   1.000
    Zr38    Zr   0.00752   0.68354   0.47684   1.000
    Zr39    Zr   0.50645   0.68372   0.47639   1.000
    Zr40    Zr   0.99259   0.00105   0.40960   1.000
    Zr41    Zr   0.49375   0.00343   0.41034   1.000
    Zr42    Zr   0.99487   0.15241   0.38339   1.000
    Zr43    Zr   0.49382   0.15468   0.38310   1.000
    Zr44    Zr   0.00778   0.27298   0.12791   1.000
    Zr45    Zr   0.51364   0.27125   0.12717   1.000
    Zr46    Zr   0.99484   0.18399   0.02370   1.000
    Zr47    Zr   0.49376   0.18392   0.02380   1.000
    Zr48    Zr   0.00752   0.99546   0.59047   1.000
    Zr49    Zr   0.50136   0.99587   0.58963   1.000
    Zr50    Zr   0.00751   0.84392   0.61684   1.000
    Zr51    Zr   0.51109   0.84456   0.61707   1.000
    Zr52    Zr   0.00488   0.72094   0.87283   1.000
    Zr53    Zr   0.50610   0.72162   0.87272   1.000
    Zr54    Zr   0.00727   0.81237   0.97649   1.000
    Zr55    Zr   0.48892   0.81232   0.97345   1.000
    O56     O    0.50440   0.42995   0.05359   1.000
    O57     O    0.50946   0.31542   0.07168   1.000
    O58     O    0.50446   0.35221   0.94996   1.000
    O59     O    0.00520   0.42980   0.05436   1.000
    O60     O    0.00641   0.31652   0.07226   1.000
    O61     O    0.00358   0.35258   0.95028   1.000
    O62     O    0.99714   0.18889   0.05992   1.000
    O63     O    0.49770   0.18847   0.05988   1.000
    O64     O    0.50484   0.53358   0.11506   1.000
    O65     O    0.00609   0.53297   0.11600   1.000
    O66     O    0.50764   0.23214   0.11157   1.000
    O67     O    0.00360   0.23338   0.11202   1.000
    O68     O    0.50616   0.60931   0.12792   1.000
    O69     O    0.50366   0.64398   0.05058   1.000
    O70     O    0.00613   0.60888   0.12861   1.000
    O71     O    0.00352   0.64399   0.05120   1.000
    O72     O    0.99429   0.11002   0.37234   1.000
    O73     O    0.99315   0.03434   0.38544   1.000
    O74     O    0.49384   0.11217   0.37229   1.000
    O75     O    0.49381   0.03655   0.38592   1.000
    O76     O    0.50692   0.73501   0.38841   1.000
    O77     O    0.50456   0.81834   0.42832   1.000
    O78     O    0.00811   0.73455   0.38878   1.000
    O79     O    0.00514   0.81774   0.42865   1.000
    O80     O    0.49593   0.14597   0.44960   1.000
    O81     O    0.99660   0.14445   0.44983   1.000
    O82     O    0.50705   0.68917   0.44031   1.000
    O83     O    0.00816   0.68888   0.44075   1.000
    O84     O    0.99773   0.93083   0.44700   1.000
    O85     O    0.49834   0.93236   0.44719   1.000
    O86     O    0.50701   0.85292   0.55056   1.000
    O87     O    0.00519   0.85226   0.55063   1.000
    O88     O    0.49589   0.22518   0.52030   1.000
    O89     O    0.49970   0.06656   0.55287   1.000
    O90     O    0.49828   0.17977   0.57260   1.000
    O91     O    0.99538   0.22452   0.52044   1.000
    O92     O    0.00293   0.06598   0.55337   1.000
    O93     O    0.99666   0.17905   0.57266   1.000
    O94     O    0.49444   0.30794   0.56074   1.000
    O95     O    0.99248   0.30734   0.56081   1.000
    O96     O    0.50283   0.96257   0.61400   1.000
    O97     O    0.00783   0.96210   0.61474   1.000
    O98     O    0.49684   0.26253   0.61304   1.000
    O99     O    0.99375   0.26186   0.61304   1.000
    O100    O    0.00783   0.88633   0.62792   1.000
    O101    O    0.50770   0.88692   0.62772   1.000
    O102    O    0.50098   0.38737   0.87267   1.000
    O103    O    0.49723   0.46302   0.88583   1.000
    O104    O    0.99947   0.38763   0.87280   1.000
    O105    O    0.99589   0.46339   0.88573   1.000
    O106    O    0.50127   0.76180   0.88756   1.000
    O107    O    0.50361   0.67891   0.92858   1.000
    O108    O    0.00620   0.76124   0.88855   1.000
    O109    O    0.00323   0.67878   0.92895   1.000
    O110    O    0.49268   0.80716   0.93793   1.000
    O111    O    0.00740   0.80695   0.94038   1.000
    O112    O    0.99828   0.56662   0.94744   1.000
    O113    O    0.49864   0.56617   0.94724   1.000
    O114    O    0.49502   0.72426   0.97895   1.000
    O115    O    0.00443   0.72449   0.98078   1.000
    N116    N    0.75171   0.63247   0.98357   1.000
    O117    O    0.65176   0.63154   0.98440   1.000
    O118    O    0.85153   0.63458   0.98375   1.000
    N119    N    0.25496   0.36353   0.01916   1.000
    O120    O    0.15502   0.36283   0.01822   1.000
    O121    O    0.35494   0.36325   0.01803   1.000
    N122    N    0.98813   0.98620   0.17991   1.000
    O123    O    0.99061   0.02237   0.24948   1.000
    O124    O    0.99252   0.06950   0.15101   1.000
    N125    N    0.75518   0.37036   0.01996   1.000
    O126    O    0.65531   0.36729   0.01877   1.000
    O127    O    0.85497   0.36846   0.01861   1.000
    N128    N    0.25116   0.62994   0.98030   1.000
    O129    O    0.15151   0.62914   0.98282   1.000
    O130    O    0.35099   0.63286   0.98084   1.000
    N131    N    0.98750   0.51207   0.67995   1.000
    O132    O    0.99105   0.47570   0.74965   1.000
    O133    O    0.98936   0.42791   0.65134   1.000
    N134    N    0.74828   0.13461   0.51665   1.000
    O135    O    0.84824   0.13399   0.51619   1.000
    O136    O    0.64827   0.13511   0.51610   1.000
    N137    N    0.48876   0.01112   0.81710   1.000
    O138    O    0.49199   0.92722   0.84664   1.000
    O139    O    0.49514   0.97478   0.74864   1.000
    N140    N    0.01578   0.00987   0.82039   1.000
    O141    O    0.01257   0.92627   0.84934   1.000
    O142    O    0.01261   0.97379   0.75082   1.000
    N143    N    0.24814   0.13801   0.51774   1.000
    O144    O    0.34804   0.13681   0.51691   1.000
    O145    O    0.14826   0.13720   0.51716   1.000
    N146    N    0.48791   0.98678   0.18062   1.000
    O147    O    0.49339   0.06956   0.15138   1.000
    O148    O    0.49069   0.02347   0.24999   1.000
    N149    N    0.51327   0.48505   0.32090   1.000
    O150    O    0.51053   0.52142   0.25118   1.000
    O151    O    0.51124   0.56911   0.34962   1.000
    N152    N    0.01116   0.48454   0.32151   1.000
    O153    O    0.00984   0.52094   0.25185   1.000
    O154    O    0.01072   0.56862   0.35020   1.000
    N155    N    0.25300   0.86227   0.48410   1.000
    O156    O    0.35293   0.86206   0.48428   1.000
    O157    O    0.15303   0.86307   0.48455   1.000
    N158    N    0.75278   0.86057   0.48166   1.000
    O159    O    0.65289   0.86231   0.48271   1.000
    O160    O    0.85274   0.86063   0.48267   1.000
    N161    N    0.48871   0.51255   0.68020   1.000
    O162    O    0.49252   0.47592   0.74979   1.000
    O163    O    0.49129   0.42846   0.65145   1.000
loop_
    _geom_bond_atom_site_label_1
    _geom_bond_atom_site_label_2
    _geom_bond_distance
    _geom_bond_site_symmetry_2
    _ccdc_geom_bond_type
    Zr3    O56       1.20600      .   S
    Zr33   O56       1.20600      .   S
    Zr3    O57       1.15530      .   S
    Zr45   O57       1.15530      .   S
    Zr3    O58       1.16081  1_554   S
    Zr27   O58       1.16081      .   S
    Zr2    O59       1.20177      .   S
    Zr32   O59       1.20177      .   S
    Zr2    O60       1.15375      .   S
    Zr44   O60       1.15375      .   S
    Zr2    O61       1.16217  1_554   S
    Zr26   O61       1.16217      .   S
    Zr46   O62       0.63584      .   S
    Zr18   O62       0.63584      .   S
    Zr47   O63       0.63535      .   S
    Zr19   O63       0.63535      .   S
    Zr33   O64       0.63834      .   S
    Zr13   O64       0.63834      .   S
    Zr32   O65       0.63759      .   S
    Zr12   O65       0.63759      .   S
    Zr19   O66       0.64347      .   S
    Zr45   O66       0.64347      .   S
    Zr18   O67       0.64318  1_655   S
    Zr44   O67       0.64318      .   S
    Zr35   O68       0.64153      .   S
    Zr13   O68       0.64153      .   S
    Zr35   O69       1.15865      .   S
    Zr1    O69       1.15865  1_556   S
    Zr34   O70       0.64164      .   S
    Zr12   O70       0.64164      .   S
    Zr34   O71       1.15796      .   S
    Zr0    O71       1.15796  1_556   S
    Zr16   O72       0.64087      .   S
    Zr42   O72       0.64087      .   S
    Zr16   O73       0.63906      .   S
    Zr40   O73       0.63906      .   S
    Zr17   O74       0.64067      .   S
    Zr43   O74       0.64067      .   S
    Zr17   O75       0.63943      .   S
    Zr41   O75       0.63943      .   S
    Zr37   O76       0.64248      .   S
    Zr15   O76       0.64248      .   S
    Zr37   O77       1.15524      .   S
    Zr5    O77       1.15524      .   S
    Zr36   O78       0.64227      .   S
    Zr14   O78       0.64227      .   S
    Zr36   O79       1.15620      .   S
    Zr4    O79       1.15620      .   S
    Zr43   O80       1.16576      .   S
    Zr7    O80       1.16576      .   S
    Zr42   O81       1.16378      .   S
    Zr6    O81       1.16378      .   S
    Zr15   O82       0.63597      .   S
    Zr39   O82       0.63597      .   S
    Zr14   O83       0.63584      .   S
    Zr38   O83       0.63584      .   S
    Zr40   O84       1.20093  1_545   S
    Zr4    O84       1.20093  1_455   S
    Zr41   O85       1.20563  1_545   S
    Zr5    O85       1.20563      .   S
    Zr5    O86       1.16540      .   S
    Zr51   O86       1.16540      .   S
    Zr4    O87       1.16010      .   S
    Zr50   O87       1.16010      .   S
    Zr7    O88       1.26719      .   S
    Zr31   O88       1.26719      .   S
    Zr7    O89       1.20067      .   S
    Zr49   O89       1.20067  1_565   S
    Zr7    O90       1.16151      .   S
    Zr29   O90       1.16151      .   S
    Zr6    O91       1.26890      .   S
    Zr30   O91       1.26890      .   S
    Zr6    O92       1.20121  1_655   S
    Zr48   O92       1.20121  1_565   S
    Zr6    O93       1.16234      .   S
    Zr28   O93       1.16234      .   S
    Zr31   O94       0.63639      .   S
    Zr11   O94       0.63639      .   S
    Zr30   O95       0.63649      .   S
    Zr10   O95       0.63649      .   S
    Zr49   O96       0.63908      .   S
    Zr21   O96       0.63908      .   S
    Zr48   O97       0.63957      .   S
    Zr20   O97       0.63957      .   S
    Zr11   O98       0.64212      .   S
    Zr29   O98       0.64212      .   S
    Zr10   O99       0.64207      .   S
    Zr28   O99       0.64207      .   S
    Zr50   O100      0.64102      .   S
    Zr20   O100      0.64102      .   S
    Zr51   O101      0.64116      .   S
    Zr21   O101      0.64116      .   S
    Zr9    O102      0.64147      .   S
    Zr27   O102      0.64147      .   S
    Zr9    O103      0.63820      .   S
    Zr25   O103      0.63820      .   S
    Zr8    O104      0.64172      .   S
    Zr26   O104      0.64172  1_455   S
    Zr8    O105      0.63782      .   S
    Zr24   O105      0.63782      .   S
    Zr53   O106      0.64299      .   S
    Zr23   O106      0.64299      .   S
    Zr53   O107      1.15821      .   S
    Zr1    O107      1.15821      .   S
    Zr52   O108      0.64334      .   S
    Zr22   O108      0.64334      .   S
    Zr52   O109      1.15562      .   S
    Zr0    O109      1.15562      .   S
    Zr23   O110      0.63601      .   S
    Zr55   O110      0.63601      .   S
    Zr22   O111      0.63563      .   S
    Zr54   O111      0.63563      .   S
    Zr24   O112      1.20670      .   S
    Zr0    O112      1.20670  1_455   S
    Zr25   O113      1.20193      .   S
    Zr1    O113      1.20193      .   S
    Zr55   O114      1.27296      .   S
    Zr1    O114      1.27296      .   S
    Zr54   O115      1.27217      .   S
    Zr0    O115      1.27217      .   S
    N116   O117      2.37203      .   S
    Zr1    O117      3.57014      .   S
    N116   O118      2.36855      .   S
    Zr0    O118      3.55891  1_455   S
    N119   O120      2.36957      .   S
    Zr2    O120      3.55727      .   S
    N119   O121      2.37227      .   S
    Zr3    O121      3.56548      .   S
    N122   O123      1.32138  1_565   S
    Zr16   O123      2.05722      .   S
    N122   O124      1.31108  1_565   S
    Zr18   O124      2.04595      .   S
    N125   O126      2.36962      .   S
    Zr3    O126      3.56230      .   S
    N125   O127      2.36730      .   S
    Zr2    O127      3.55822  1_455   S
    N128   O129      2.36661      .   S
    Zr0    O129      3.55531      .   S
    N128   O130      2.36924      .   S
    Zr1    O130      3.55988      .   S
    N131   O132      1.32102      .   S
    Zr8    O132      2.05692      .   S
    N131   O133      1.31141      .   S
    Zr10   O133      2.04627      .   S
    N134   O135      2.37068      .   S
    Zr6    O135      3.56133      .   S
    N134   O136      2.37116      .   S
    Zr7    O136      3.56151      .   S
    N137   O138      1.31035  1_545   S
    Zr23   O138      2.04387      .   S
    N137   O139      1.32007  1_545   S
    Zr21   O139      2.05540      .   S
    N140   O141      1.31176  1_545   S
    Zr22   O141      2.04616      .   S
    N140   O142      1.32117  1_545   S
    Zr20   O142      2.05652      .   S
    N143   O144      2.36948      .   S
    Zr7    O144      3.55856      .   S
    N143   O145      2.36867      .   S
    Zr6    O145      3.55522  1_655   S
    N146   O147      1.31050  1_565   S
    Zr19   O147      2.04495      .   S
    N146   O148      1.32131  1_565   S
    Zr17   O148      2.05643      .   S
    N149   O150      1.32162      .   S
    Zr13   O150      2.05761      .   S
    N149   O151      1.31079      .   S
    Zr15   O151      2.04547      .   S
    N152   O153      1.32187      .   S
    Zr12   O153      2.05701      .   S
    N152   O154      1.31066      .   S
    Zr14   O154      2.04454      .   S
    N155   O156      2.36963      .   S
    Zr5    O156      3.55715      .   S
    N155   O157      2.37088      .   S
    Zr4    O157      3.56290      .   S
    N158   O159      2.36910      .   S
    Zr5    O159      3.55873      .   S
    N158   O160      2.36978      .   S
    Zr4    O160      3.55858  1_455   S
    N161   O162      1.32064      .   S
    Zr9    O162      2.05635      .   S
    N161   O163      1.31164      .   S
    Zr11   O163      2.04664      .   S
