# CIF file generated by openbabel 2.4.90, see http://openbabel.sf.net
data_I
_chemical_name_common ''
_cell_length_a 23.83
_cell_length_b 23.831
_cell_length_c 15.27
_cell_angle_alpha 109.83
_cell_angle_beta 109.896
_cell_angle_gamma 97.193
_space_group_name_H-M_alt 'P 1'
_space_group_name_Hall 'P 1'
loop_
    _symmetry_equiv_pos_as_xyz
    x,y,z
loop_
    _atom_site_label
    _atom_site_type_symbol
    _atom_site_fract_x
    _atom_site_fract_y
    _atom_site_fract_z
    _atom_site_occupancy
    H0      H    0.05886   0.01277   0.01630   1.000
    H1      H    0.05880   0.51280   0.01647   1.000
    H2      H    0.55882   0.01281   0.01647   1.000
    H3      H    0.55883   0.51280   0.01639   1.000
    H4      H    0.09424   0.20767   0.08040   1.000
    H5      H    0.09418   0.70769   0.08047   1.000
    H6      H    0.59437   0.20771   0.08050   1.000
    H7      H    0.59449   0.70773   0.08062   1.000
    H8      H    0.14653   0.14017   0.31892   1.000
    H9      H    0.14652   0.64021   0.31901   1.000
    H10     H    0.64643   0.14020   0.31904   1.000
    H11     H    0.64641   0.64010   0.31902   1.000
    H12     H    0.44956   0.26521   0.07818   1.000
    H13     H    0.44953   0.76509   0.07818   1.000
    H14     H    0.94953   0.26523   0.07813   1.000
    H15     H    0.94946   0.76507   0.07806   1.000
    H16     H    0.44694   0.10068   0.13718   1.000
    H17     H    0.44695   0.60059   0.13730   1.000
    H18     H    0.94672   0.10065   0.13702   1.000
    H19     H    0.94666   0.60050   0.13699   1.000
    H20     H    0.02142   0.28582   0.37949   1.000
    H21     H    0.02140   0.78568   0.37943   1.000
    H22     H    0.52126   0.28587   0.37959   1.000
    H23     H    0.52137   0.78581   0.37962   1.000
    H24     H    0.48713   0.44126   0.48363   1.000
    H25     H    0.48715   0.94122   0.48360   1.000
    H26     H    0.98714   0.44124   0.48346   1.000
    H27     H    0.98717   0.94115   0.48357   1.000
    H28     H    0.29220   0.40585   0.41980   1.000
    H29     H    0.29221   0.90580   0.41969   1.000
    H30     H    0.79223   0.40570   0.41968   1.000
    H31     H    0.79224   0.90582   0.41977   1.000
    H32     H    0.35946   0.35342   0.18116   1.000
    H33     H    0.35952   0.85338   0.18113   1.000
    H34     H    0.85944   0.35336   0.18100   1.000
    H35     H    0.85946   0.85327   0.18110   1.000
    H36     H    0.23486   0.05039   0.42190   1.000
    H37     H    0.23494   0.55049   0.42192   1.000
    H38     H    0.73479   0.05035   0.42180   1.000
    H39     H    0.73479   0.55025   0.42177   1.000
    H40     H    0.39946   0.05340   0.36314   1.000
    H41     H    0.39947   0.55328   0.36299   1.000
    H42     H    0.89938   0.05338   0.36302   1.000
    H43     H    0.89935   0.55320   0.36291   1.000
    H44     H    0.21413   0.47842   0.12054   1.000
    H45     H    0.21416   0.97837   0.12058   1.000
    H46     H    0.71403   0.47829   0.12042   1.000
    H47     H    0.71407   0.97830   0.12047   1.000
    H48     H    0.44113   0.48718   0.98363   1.000
    H49     H    0.44114   0.98717   0.98354   1.000
    H50     H    0.94117   0.48719   0.98354   1.000
    H51     H    0.94109   0.98721   0.98364   1.000
    H52     H    0.40546   0.29224   0.91939   1.000
    H53     H    0.40558   0.79227   0.91951   1.000
    H54     H    0.90578   0.29229   0.91950   1.000
    H55     H    0.90572   0.79231   0.91961   1.000
    H56     H    0.35355   0.35988   0.68100   1.000
    H57     H    0.35353   0.85978   0.68097   1.000
    H58     H    0.85344   0.35977   0.68100   1.000
    H59     H    0.85343   0.85981   0.68109   1.000
    H60     H    0.05050   0.23491   0.92196   1.000
    H61     H    0.05043   0.73474   0.92188   1.000
    H62     H    0.55043   0.23489   0.92183   1.000
    H63     H    0.55039   0.73476   0.92183   1.000
    H64     H    0.05330   0.39948   0.86302   1.000
    H65     H    0.05324   0.89933   0.86300   1.000
    H66     H    0.55301   0.39939   0.86271   1.000
    H67     H    0.55302   0.89930   0.86283   1.000
    H68     H    0.47859   0.21416   0.62039   1.000
    H69     H    0.47870   0.71411   0.62042   1.000
    H70     H    0.97856   0.21430   0.62058   1.000
    H71     H    0.97854   0.71416   0.62052   1.000
    C72     C    0.25755   0.04100   0.36961   1.000
    C73     C    0.25760   0.54105   0.36959   1.000
    C74     C    0.75746   0.04096   0.36950   1.000
    H75     H    0.01279   0.05882   0.51644   1.000
    H76     H    0.01282   0.55874   0.51655   1.000
    H77     H    0.51281   0.05876   0.51637   1.000
    H78     H    0.51283   0.55871   0.51639   1.000
    H79     H    0.20771   0.09416   0.58024   1.000
    H80     H    0.20774   0.59428   0.58033   1.000
    H81     H    0.70775   0.09418   0.58032   1.000
    H82     H    0.70775   0.59412   0.58022   1.000
    H83     H    0.14049   0.14671   0.81889   1.000
    H84     H    0.14052   0.64662   0.81901   1.000
    H85     H    0.64043   0.14659   0.81888   1.000
    H86     H    0.64050   0.64656   0.81885   1.000
    H87     H    0.26517   0.44972   0.57823   1.000
    H88     H    0.26517   0.94963   0.57820   1.000
    H89     H    0.76503   0.44949   0.57809   1.000
    H90     H    0.76510   0.94960   0.57811   1.000
    H91     H    0.10061   0.44678   0.63710   1.000
    H92     H    0.10058   0.94660   0.63700   1.000
    H93     H    0.60049   0.44669   0.63700   1.000
    H94     H    0.60050   0.94659   0.63687   1.000
    H95     H    0.28589   0.02167   0.87953   1.000
    H96     H    0.28593   0.52168   0.87959   1.000
    H97     H    0.78580   0.02161   0.87943   1.000
    H98     H    0.78583   0.52156   0.87947   1.000
    C99     C    0.04261   0.34926   0.83634   1.000
    C100    C    0.04255   0.84911   0.83631   1.000
    C101    C    0.54239   0.34918   0.83607   1.000
    C102    C    0.54241   0.84908   0.83617   1.000
    C103    C    0.01485   0.31020   0.73278   1.000
    C104    C    0.07748   0.06135   0.06952   1.000
    C105    C    0.07741   0.56138   0.06961   1.000
    C106    C    0.57746   0.06139   0.06960   1.000
    C107    C    0.57747   0.56137   0.06958   1.000
    C108    C    0.07283   0.10825   0.03414   1.000
    C109    C    0.07276   0.60828   0.03424   1.000
    C110    C    0.57290   0.10828   0.03424   1.000
    C111    C    0.57299   0.60831   0.03427   1.000
    C112    C    0.09714   0.17001   0.10549   1.000
    C113    C    0.09708   0.67004   0.10558   1.000
    C114    C    0.59722   0.17004   0.10560   1.000
    C115    C    0.59730   0.67005   0.10568   1.000
    C116    C    0.12332   0.18172   0.20889   1.000
    C117    C    0.12329   0.68176   0.20898   1.000
    C118    C    0.62333   0.18175   0.20900   1.000
    C119    C    0.62336   0.68171   0.20907   1.000
    C120    C    0.12667   0.13262   0.23881   1.000
    C121    C    0.12663   0.63266   0.23800   1.000
    C122    C    0.62660   0.13266   0.23893   1.000
    C123    C    0.62659   0.63259   0.23892   1.000
    C124    C    0.45898   0.24254   0.13054   1.000
    C125    C    0.45897   0.74242   0.13056   1.000
    C126    C    0.95893   0.24254   0.13045   1.000
    C127    C    0.95887   0.74238   0.13030   1.000
    C128    C    0.44415   0.17792   0.09355   1.000
    C129    C    0.44412   0.67781   0.09361   1.000
    C130    C    0.94398   0.17792   0.09343   1.000
    C131    C    0.94390   0.67775   0.09338   1.000
    C132    C    0.45755   0.15089   0.16380   1.000
    C133    C    0.45756   0.65080   0.16394   1.000
    C134    C    0.95741   0.15087   0.16371   1.000
    C135    C    0.95735   0.65072   0.16367   1.000
    C136    C    0.48519   0.18996   0.26740   1.000
    C137    C    0.48524   0.68989   0.26749   1.000
    C138    C    0.98517   0.18993   0.26727   1.000
    C139    C    0.98511   0.68978   0.26723   1.000
    C140    C    0.99889   0.25412   0.29903   1.000
    C141    C    0.99885   0.75397   0.29897   1.000
    C142    C    0.49880   0.25416   0.29913   1.000
    C143    C    0.49887   0.75408   0.29910   1.000
    C144    C    0.43851   0.42263   0.43050   1.000
    C145    C    0.43853   0.92258   0.43051   1.000
    C146    C    0.93852   0.42257   0.43036   1.000
    C147    C    0.93854   0.92251   0.43040   1.000
    C148    C    0.39165   0.42728   0.46595   1.000
    C149    C    0.39166   0.92725   0.46589   1.000
    C150    C    0.89167   0.42720   0.46581   1.000
    C151    C    0.89169   0.92723   0.46592   1.000
    C152    C    0.32983   0.40293   0.39465   1.000
    C153    C    0.32985   0.90289   0.39457   1.000
    C154    C    0.82985   0.40282   0.39452   1.000
    C155    C    0.82987   0.90288   0.39463   1.000
    C156    C    0.31802   0.37669   0.29125   1.000
    C157    C    0.31806   0.87664   0.29117   1.000
    C158    C    0.81803   0.37659   0.29111   1.000
    C159    C    0.81805   0.87661   0.29122   1.000
    C160    C    0.36707   0.37333   0.26128   1.000
    C161    C    0.36713   0.87329   0.26124   1.000
    C162    C    0.86708   0.37327   0.26112   1.000
    C163    C    0.86710   0.87320   0.26124   1.000
    C164    C    0.75745   0.54085   0.36945   1.000
    C165    C    0.32220   0.05605   0.40666   1.000
    C166    C    0.32224   0.55604   0.40659   1.000
    C167    C    0.82211   0.05603   0.40650   1.000
    C168    C    0.82210   0.55588   0.40647   1.000
    C169    C    0.34922   0.04263   0.33641   1.000
    C170    C    0.34923   0.54257   0.33630   1.000
    C171    C    0.84913   0.04260   0.33630   1.000
    C172    C    0.84911   0.54246   0.33621   1.000
    C173    C    0.31012   0.01479   0.23284   1.000
    C174    C    0.31011   0.51478   0.23274   1.000
    C175    C    0.81003   0.01474   0.23273   1.000
    C176    C    0.81000   0.51466   0.23265   1.000
    C177    C    0.24589   0.50101   0.20100   1.000
    C178    C    0.24590   0.00000   0.20104   1.000
    C179    C    0.74578   0.50087   0.20088   1.000
    C180    C    0.74580   0.00000   0.20094   1.000
    C181    C    0.42249   0.43861   0.93043   1.000
    C182    C    0.42250   0.93859   0.93039   1.000
    C183    C    0.92256   0.43860   0.93040   1.000
    C184    C    0.92248   0.93862   0.93049   1.000
    C185    C    0.42697   0.39167   0.96574   1.000
    C186    C    0.42706   0.89169   0.96577   1.000
    C187    C    0.92720   0.39171   0.96577   1.000
    C188    C    0.92713   0.89173   0.96587   1.000
    C189    C    0.40266   0.32993   0.89434   1.000
    C190    C    0.40274   0.82993   0.89441   1.000
    C191    C    0.90288   0.32994   0.89443   1.000
    C192    C    0.90282   0.82997   0.89452   1.000
    C193    C    0.37660   0.31826   0.79095   1.000
    C194    C    0.37663   0.81822   0.79101   1.000
    C195    C    0.87667   0.31822   0.79103   1.000
    C196    C    0.87664   0.81825   0.79111   1.000
    C197    C    0.37336   0.36739   0.76110   1.000
    C198    C    0.37336   0.86732   0.76108   1.000
    C199    C    0.87333   0.36732   0.76111   1.000
    C200    C    0.87329   0.86735   0.76120   1.000
    C201    C    0.04110   0.25760   0.86963   1.000
    C202    C    0.04104   0.75744   0.86956   1.000
    C203    C    0.54099   0.25755   0.86946   1.000
    C204    C    0.54097   0.75744   0.86947   1.000
    C205    C    0.05606   0.32223   0.90663   1.000
    C206    C    0.05598   0.82206   0.90658   1.000
    C207    C    0.55584   0.32217   0.90640   1.000
    C208    C    0.55581   0.82205   0.90646   1.000
    C209    C    0.01480   0.81006   0.73274   1.000
    C210    C    0.51472   0.31009   0.73252   1.000
    C211    C    0.51477   0.81001   0.73261   1.000
    C212    C    0.50109   0.24590   0.70084   1.000
    C213    C    0.50116   0.74582   0.70088   1.000
    C214    C    0.00000   0.24601   0.70104   1.000
    C215    C    0.00000   0.74586   0.70098   1.000
    C216    C    0.06142   0.07747   0.56953   1.000
    C217    C    0.06144   0.57741   0.56965   1.000
    C218    C    0.56143   0.07740   0.56950   1.000
    C219    C    0.56145   0.57735   0.56948   1.000
    C220    C    0.10826   0.07275   0.53409   1.000
    C221    C    0.10829   0.57278   0.53420   1.000
    C222    C    0.60830   0.07273   0.53412   1.000
    C223    C    0.60831   0.57269   0.53406   1.000
    C224    C    0.17009   0.09710   0.60538   1.000
    C225    C    0.17011   0.59716   0.60540   1.000
    C226    C    0.67011   0.09710   0.60545   1.000
    C227    C    0.67013   0.59704   0.60536   1.000
    C228    C    0.18190   0.12337   0.70879   1.000
    C229    C    0.18193   0.62339   0.70890   1.000
    C230    C    0.68190   0.12334   0.70884   1.000
    C231    C    0.68194   0.62329   0.70877   1.000
    C232    C    0.13285   0.12677   0.73877   1.000
    C233    C    0.13288   0.62671   0.73889   1.000
    C234    C    0.63283   0.12668   0.73877   1.000
    C235    C    0.63288   0.62665   0.73870   1.000
    C236    C    0.24250   0.45912   0.63056   1.000
    C237    C    0.24250   0.95902   0.63051   1.000
    C238    C    0.74237   0.45893   0.63042   1.000
    C239    C    0.74241   0.95899   0.63041   1.000
    C240    C    0.17786   0.44409   0.59354   1.000
    C241    C    0.17784   0.94395   0.59347   1.000
    C242    C    0.67772   0.44394   0.59342   1.000
    C243    C    0.67776   0.94393   0.59335   1.000
    C244    C    0.15085   0.45752   0.66380   1.000
    C245    C    0.15082   0.95738   0.66371   1.000
    C246    C    0.65073   0.45740   0.66371   1.000
    C247    C    0.65074   0.95735   0.66360   1.000
    C248    C    0.18996   0.48532   0.76736   1.000
    C249    C    0.18993   0.98524   0.76728   1.000
    C250    C    0.68985   0.48520   0.76720   1.000
    C251    C    0.68984   0.98519   0.76717   1.000
    C252    C    0.25416   0.99906   0.79907   1.000
    C253    C    0.25418   0.49911   0.79913   1.000
    C254    C    0.75406   0.99900   0.79897   1.000
    C255    C    0.75407   0.49896   0.79901   1.000
    Br256   Br   0.15318   0.26479   0.31071   1.000
    Br257   Br   0.15319   0.76483   0.31077   1.000
    Br258   Br   0.65317   0.26482   0.31080   1.000
    Br259   Br   0.65322   0.76477   0.31091   1.000
    Br260   Br   0.00671   0.15618   0.36774   1.000
    Br261   Br   0.00666   0.65603   0.36769   1.000
    Br262   Br   0.50668   0.15625   0.36791   1.000
    Br263   Br   0.50677   0.65619   0.36801   1.000
    Br264   Br   0.23487   0.34676   0.18949   1.000
    Br265   Br   0.23491   0.84671   0.18939   1.000
    Br266   Br   0.73487   0.34663   0.18935   1.000
    Br267   Br   0.73489   0.84668   0.18946   1.000
    Br268   Br   0.34381   0.49330   0.13229   1.000
    Br269   Br   0.34386   0.99331   0.13246   1.000
    Br270   Br   0.84370   0.49320   0.13220   1.000
    Br271   Br   0.84375   0.99324   0.13232   1.000
    Br272   Br   0.34673   0.23521   0.68910   1.000
    Br273   Br   0.34679   0.73516   0.68921   1.000
    Br274   Br   0.84677   0.23515   0.68924   1.000
    Br275   Br   0.84678   0.73519   0.68930   1.000
    Br276   Br   0.49319   0.34378   0.63199   1.000
    Br277   Br   0.49328   0.84373   0.63210   1.000
    Br278   Br   0.99330   0.34395   0.63232   1.000
    Br279   Br   0.99325   0.84380   0.63220   1.000
    Br280   Br   0.26506   0.15330   0.81055   1.000
    Br281   Br   0.26509   0.65335   0.81066   1.000
    Br282   Br   0.76505   0.15327   0.81060   1.000
    Br283   Br   0.76509   0.65322   0.81053   1.000
    Br284   Br   0.15621   0.00674   0.86769   1.000
    Br285   Br   0.15626   0.50678   0.86781   1.000
    Br286   Br   0.65610   0.00667   0.86755   1.000
    Br287   Br   0.65615   0.50667   0.86771   1.000
    N288    N    0.10455   0.07332   0.16929   1.000
    N289    N    0.10450   0.57335   0.16930   1.000
    N290    N    0.60446   0.07335   0.16941   1.000
    N291    N    0.60444   0.57329   0.16935   1.000
    N292    N    0.48546   0.27978   0.23087   1.000
    N293    N    0.48549   0.77968   0.23088   1.000
    N294    N    0.98553   0.27977   0.23079   1.000
    N295    N    0.98547   0.77961   0.23073   1.000
    N296    N    0.42643   0.39551   0.33076   1.000
    N297    N    0.42649   0.89546   0.33074   1.000
    N298    N    0.92645   0.39547   0.33058   1.000
    N299    N    0.92647   0.89536   0.33070   1.000
    N300    N    0.22028   0.01431   0.26926   1.000
    N301    N    0.22030   0.51438   0.26925   1.000
    N302    N    0.72019   0.01426   0.26915   1.000
    N303    N    0.72016   0.51418   0.26910   1.000
    N304    N    0.39552   0.42669   0.83066   1.000
    N305    N    0.39550   0.92663   0.83060   1.000
    N306    N    0.89546   0.42663   0.83062   1.000
    N307    N    0.89541   0.92666   0.83072   1.000
    N308    N    0.01449   0.22037   0.76929   1.000
    N309    N    0.01444   0.72022   0.76921   1.000
    N310    N    0.51446   0.22030   0.76913   1.000
    N311    N    0.51449   0.72020   0.76914   1.000
    N312    N    0.07349   0.10462   0.66931   1.000
    N313    N    0.07351   0.60451   0.66943   1.000
    N314    N    0.57347   0.10452   0.66927   1.000
    N315    N    0.57352   0.60447   0.66926   1.000
    N316    N    0.27979   0.48579   0.73090   1.000
    N317    N    0.27977   0.98572   0.73086   1.000
    N318    N    0.77966   0.48561   0.73070   1.000
    N319    N    0.77968   0.98567   0.73076   1.000
loop_
    _geom_bond_atom_site_label_1
    _geom_bond_atom_site_label_2
    _geom_bond_distance
    _geom_bond_site_symmetry_2
    _ccdc_geom_bond_type
    H0     C104      1.08871      .   S
    H3     C107      1.08845      .   S
    H2     C106      1.08836      .   S
    H1     C105      1.08842      .   S
    C108   C104      1.39751      .   S
    C108   C112      1.39926      .   S
    C110   C106      1.39724      .   S
    C110   C114      1.39926      .   S
    C109   C105      1.39748      .   S
    C109   C113      1.39924      .   S
    C111   C107      1.39755      .   S
    C111   C115      1.39921      .   S
    C104   N288      1.34490      .   S
    C107   N291      1.34499      .   S
    C106   N290      1.34534      .   S
    C105   N289      1.34380      .   S
    H15    C127      1.08643      .   S
    H14    C126      1.08750      .   S
    H12    C124      1.08758      .   S
    H13    C125      1.08764      .   S
    H4     C112      1.08987      .   S
    H5     C113      1.08992      .   S
    H6     C114      1.08992      .   S
    H7     C115      1.08999      .   S
    C131   C127      1.39762      .   S
    C131   C135      1.39874      .   S
    C130   C126      1.39750      .   S
    C130   C134      1.39882      .   S
    C128   C124      1.39747      .   S
    C128   C132      1.39814      .   S
    C129   C125      1.39752      .   S
    C129   C133      1.39874      .   S
    C112   C116      1.39538      .   S
    C113   C117      1.39538      .   S
    C114   C118      1.39532      .   S
    C115   C119      1.39540      .   S
    H46    C179      1.09009      .   S
    H47    C180      1.08983  1_565   S
    H44    C177      1.09017      .   S
    H45    C178      1.08972  1_565   S
    C127   N295      1.34730      .   S
    C126   N294      1.34624      .   S
    C124   N292      1.34620      .   S
    C125   N293      1.34617      .   S
    Br270  C176      1.91532      .   S
    Br268  C174      1.91519      .   S
    Br271  C175      1.91523  1_565   S
    Br269  C173      1.91510  1_565   S
    H19    C135      1.08874      .   S
    H18    C134      1.08873      .   S
    H16    C132      1.08880      .   S
    H17    C133      1.08873      .   S
    C135   C139      1.39278      .   S
    C134   C138      1.39276      .   S
    C132   C136      1.39329      .   S
    C133   C137      1.39282      .   S
    N288   C120      1.34791      .   S
    N289   C121      1.34424      .   S
    N291   C123      1.34798      .   S
    N290   C122      1.34791      .   S
    H34    C162      1.08996      .   S
    H35    C163      1.09025      .   S
    H33    C161      1.09001      .   S
    H32    C160      1.09009      .   S
    Br266  C158      1.91009      .   S
    Br265  C157      1.90998      .   S
    Br267  C159      1.91010      .   S
    Br264  C156      1.90997      .   S
    C179   C176      1.39499      .   S
    C179   N303      1.34733      .   S
    C180   C175      1.39476      .   S
    C180   N302      1.34820      .   S
    C177   C174      1.39498      .   S
    C177   N301      1.34743      .   S
    C178   C173      1.39476      .   S
    C178   N300      1.34843      .   S
    C116   C120      1.39476      .   S
    C116   Br256     1.91006      .   S
    C117   C121      1.38665      .   S
    C117   Br257     1.91000      .   S
    C118   C122      1.39477      .   S
    C118   Br258     1.90998      .   S
    C119   C123      1.39471      .   S
    C119   Br259     1.91001      .   S
    N295   C141      1.34734      .   S
    N294   C140      1.34747      .   S
    N292   C142      1.34739      .   S
    N293   C143      1.34649      .   S
    C176   C172      1.39276      .   S
    C175   C171      1.39282      .   S
    C174   C170      1.39279      .   S
    C173   C169      1.39278      .   S
    C121   H9        1.10261      .   S
    C120   H8        1.09002      .   S
    C123   H11       1.09003      .   S
    C122   H10       1.09001      .   S
    C162   C158      1.39472      .   S
    C162   N298      1.34789      .   S
    C161   C157      1.39474      .   S
    C161   N297      1.34790      .   S
    C163   C159      1.39474      .   S
    C163   N299      1.34790      .   S
    C160   C156      1.39470      .   S
    C160   N296      1.34786      .   S
    C139   C141      1.39497      .   S
    C139   Br261     1.91519  1_655   S
    C138   C140      1.39496      .   S
    C138   Br260     1.91525  1_655   S
    C136   C142      1.39498      .   S
    C136   Br262     1.91528      .   S
    C137   C143      1.39510      .   S
    C137   Br263     1.91512      .   S
    N303   C164      1.34635      .   S
    N302   C74       1.34629      .   S
    N301   C73       1.34628      .   S
    N300   C72       1.34626      .   S
    C158   C154      1.39538      .   S
    C157   C153      1.39540      .   S
    C159   C155      1.39541      .   S
    C156   C152      1.39529      .   S
    C141   H21       1.09011  1_655   S
    C140   H20       1.09005  1_655   S
    C143   H23       1.09090      .   S
    C142   H22       1.09009      .   S
    N298   C146      1.34497      .   S
    N299   C147      1.34395      .   S
    N297   C145      1.34499      .   S
    N296   C144      1.34443      .   S
    C172   H43       1.08872      .   S
    C172   C168      1.39872      .   S
    C171   H42       1.08873      .   S
    C171   C167      1.39813      .   S
    C170   H41       1.08871      .   S
    C170   C166      1.39877      .   S
    C169   H40       1.08871      .   S
    C169   C165      1.39876      .   S
    C164   C168      1.39748      .   S
    C164   H39       1.08751      .   S
    C74    C167      1.39752      .   S
    C74    H38       1.08747      .   S
    C73    C166      1.39749      .   S
    C73    H37       1.08761      .   S
    C72    C165      1.39753      .   S
    C72    H36       1.08751      .   S
    C154   H30       1.08999      .   S
    C154   C150      1.39929      .   S
    C153   H29       1.08993      .   S
    C153   C149      1.39922      .   S
    C155   H31       1.08994      .   S
    C155   C151      1.39928      .   S
    C152   H28       1.08999      .   S
    C152   C148      1.39927      .   S
    C146   C150      1.39751      .   S
    C146   H26       1.08845      .   S
    C147   C151      1.39827      .   S
    C147   H27       1.08873      .   S
    C144   C148      1.39777      .   S
    C144   H24       1.08857      .   S
    C145   C149      1.39748      .   S
    C145   H25       1.08831      .   S
    H77    C218      1.08846      .   S
    H78    C219      1.08842      .   S
    H75    C216      1.08844      .   S
    H76    C217      1.08845      .   S
    C223   C219      1.39746      .   S
    C223   C227      1.39927      .   S
    C220   C216      1.39750      .   S
    C220   C224      1.39930      .   S
    C222   C218      1.39751      .   S
    C222   C226      1.39924      .   S
    C221   C217      1.39749      .   S
    C221   C225      1.39891      .   S
    C219   N315      1.34498      .   S
    C218   N314      1.34499      .   S
    C216   N312      1.34504      .   S
    C217   N313      1.34497      .   S
    H89    C238      1.08761      .   S
    H90    C239      1.08763      .   S
    H88    C237      1.08758      .   S
    H87    C236      1.08764      .   S
    H82    C227      1.08990      .   S
    H79    C224      1.08992      .   S
    H81    C226      1.09002      .   S
    H80    C225      1.08918      .   S
    C243   C239      1.39752      .   S
    C243   C247      1.39876      .   S
    C242   C238      1.39749      .   S
    C242   C246      1.39878      .   S
    C241   C237      1.39749      .   S
    C241   C245      1.39863      .   S
    C240   C236      1.39748      .   S
    C240   C244      1.39869      .   S
    C227   C231      1.39542      .   S
    C224   C228      1.39541      .   S
    C225   C229      1.39662      .   S
    C226   C230      1.39527      .   S
    H68    C212      1.09013      .   S
    H69    C213      1.09008      .   S
    H71    C215      1.08977  1_655   S
    H70    C214      1.08984  1_655   S
    C239   N319      1.34626      .   S
    C238   N318      1.34558      .   S
    C237   N317      1.34630      .   S
    C236   N316      1.34624      .   S
    Br276  C210      1.91522      .   S
    Br277  C211      1.91529      .   S
    Br279  C209      1.91622  1_655   S
    Br278  C103      1.91516  1_655   S
    H94    C247      1.08871      .   S
    H92    C245      1.08872      .   S
    H93    C246      1.08871      .   S
    H91    C244      1.08874      .   S
    C247   C251      1.39278      .   S
    C246   C250      1.39199      .   S
    C245   C249      1.39283      .   S
    C244   C248      1.39276      .   S
    N315   C235      1.34770      .   S
    N314   C234      1.34790      .   S
    N312   C232      1.34790      .   S
    N313   C233      1.34789      .   S
    H57    C198      1.09002      .   S
    H58    C199      1.08997      .   S
    H56    C197      1.09004      .   S
    H59    C200      1.09002      .   S
    Br272  C193      1.91006      .   S
    Br273  C194      1.90998      .   S
    Br274  C195      1.91001      .   S
    Br275  C196      1.91001      .   S
    C212   C210      1.39498      .   S
    C212   N310      1.34738      .   S
    C213   C211      1.39500      .   S
    C213   N311      1.34739      .   S
    C215   C209      1.39466      .   S
    C215   N309      1.34837      .   S
    C214   C103      1.39469      .   S
    C214   N308      1.34851      .   S
    C231   C235      1.39433      .   S
    C231   Br283     1.90998      .   S
    C228   C232      1.39474      .   S
    C228   Br280     1.91009      .   S
    C230   C234      1.39473      .   S
    C230   Br282     1.90988      .   S
    C229   C233      1.39473      .   S
    C229   Br281     1.91008      .   S
    N318   C255      1.34821      .   S
    N319   C254      1.34741      .   S
    N317   C252      1.34732      .   S
    N316   C253      1.34742      .   S
    C210   C101      1.39282      .   S
    C211   C102      1.39283      .   S
    C209   C100      1.39287      .   S
    C103   C99       1.39279      .   S
    C235   H86       1.09051      .   S
    C234   H85       1.09001      .   S
    C232   H83       1.08997      .   S
    C233   H84       1.08996      .   S
    C198   C194      1.39477      .   S
    C198   N305      1.34791      .   S
    C197   C193      1.39471      .   S
    C197   N304      1.34793      .   S
    C199   C195      1.39476      .   S
    C199   N306      1.34788      .   S
    C200   C196      1.39467      .   S
    C200   N307      1.34791      .   S
    C251   C254      1.39500      .   S
    C251   Br286     1.91511  1_565   S
    C250   C255      1.39489      .   S
    C250   Br287     1.91597      .   S
    C249   C252      1.39501      .   S
    C249   Br284     1.91518  1_565   S
    C248   C253      1.39501      .   S
    C248   Br285     1.91529      .   S
    N310   C203      1.34628      .   S
    N311   C204      1.34619      .   S
    N309   C202      1.34635      .   S
    N308   C201      1.34627      .   S
    C193   C189      1.39540      .   S
    C194   C190      1.39532      .   S
    C195   C191      1.39537      .   S
    C196   C192      1.39552      .   S
    C254   H97       1.09005  1_565   S
    C255   H98       1.09017      .   S
    C252   H95       1.09006  1_565   S
    C253   H96       1.09009      .   S
    N305   C182      1.34507      .   S
    N306   C183      1.34503      .   S
    N304   C181      1.34498      .   S
    N307   C184      1.34489      .   S
    C101   H66       1.08873      .   S
    C101   C207      1.39872      .   S
    C102   H67       1.08875      .   S
    C102   C208      1.39868      .   S
    C100   H65       1.08873      .   S
    C100   C206      1.39872      .   S
    C99    H64       1.08871      .   S
    C99    C205      1.39872      .   S
    C203   C207      1.39753      .   S
    C203   H62       1.08749      .   S
    C204   C208      1.39747      .   S
    C204   H63       1.08760      .   S
    C202   C206      1.39748      .   S
    C202   H61       1.08752      .   S
    C201   C205      1.39757      .   S
    C201   H60       1.08756      .   S
    C189   H52       1.08989      .   S
    C189   C185      1.39918      .   S
    C190   H53       1.08995      .   S
    C190   C186      1.39924      .   S
    C191   H54       1.08955      .   S
    C191   C187      1.39924      .   S
    C192   H55       1.08990      .   S
    C192   C188      1.39925      .   S
    C182   C186      1.39745      .   S
    C182   H49       1.08844      .   S
    C183   C187      1.39743      .   S
    C183   H50       1.08844      .   S
    C181   C185      1.39754      .   S
    C181   H48       1.08848      .   S
    C184   C188      1.39753      .   S
    C184   H51       1.08845      .   S
