# CIF file generated by openbabel 2.4.90, see http://openbabel.sf.net
data_I
_chemical_name_common ''
_cell_length_a 14.609
_cell_length_b 21.986
_cell_length_c 21.972
_cell_angle_alpha 60.764
_cell_angle_beta 90.014
_cell_angle_gamma 89.993
_space_group_name_H-M_alt 'P 1'
_space_group_name_Hall 'P 1'
loop_
    _symmetry_equiv_pos_as_xyz
    x,y,z
loop_
    _atom_site_label
    _atom_site_type_symbol
    _atom_site_fract_x
    _atom_site_fract_y
    _atom_site_fract_z
    _atom_site_occupancy
    Zr0     Zr   0.99984   0.99968   0.50010   1.000
    Zr1     Zr   0.49986   0.99968   0.50010   1.000
    Zr2     Zr   0.25017   0.99969   0.50009   1.000
    Zr3     Zr   0.75018   0.99969   0.50009   1.000
    Zr4     Zr   0.24994   0.50191   0.00000   1.000
    Zr5     Zr   0.74995   0.50191   0.00000   1.000
    Zr6     Zr   0.00014   0.50184   0.00000   1.000
    Zr7     Zr   0.50015   0.50184   0.00000   1.000
    Zr8     Zr   0.00005   0.99806   0.00240   1.000
    Zr9     Zr   0.50006   0.99806   0.00247   1.000
    Zr10    Zr   0.24993   0.99795   0.00256   1.000
    Zr11    Zr   0.74994   0.99794   0.00256   1.000
    N12     N    0.62492   0.67106   0.02608   1.000
    O13     O    0.67563   0.63877   0.02266   1.000
    O14     O    0.57422   0.63911   0.02209   1.000
    N15     N    0.12491   0.67106   0.02608   1.000
    O16     O    0.07420   0.63911   0.02209   1.000
    O17     O    0.17561   0.63877   0.02266   1.000
    N18     N    0.87505   0.97378   0.33012   1.000
    O19     O    0.92577   0.97731   0.36244   1.000
    O20     O    0.82432   0.97732   0.36243   1.000
    N21     N    0.62506   0.32540   0.18967   1.000
    O22     O    0.57434   0.35876   0.15511   1.000
    O23     O    0.67582   0.35860   0.15504   1.000
    N24     N    0.37498   0.81129   0.67641   1.000
    O25     O    0.32430   0.84578   0.64315   1.000
    O26     O    0.42569   0.84577   0.64316   1.000
    N27     N    0.87499   0.81129   0.67640   1.000
    O28     O    0.82431   0.84577   0.64315   1.000
    O29     O    0.92569   0.84577   0.64316   1.000
    N30     N    0.37504   0.97379   0.33029   1.000
    O31     O    0.42576   0.97731   0.36257   1.000
    O32     O    0.32430   0.97732   0.36255   1.000
    N33     N    0.12505   0.32540   0.18967   1.000
    O34     O    0.07433   0.35876   0.15511   1.000
    O35     O    0.17580   0.35860   0.15504   1.000
    N36     N    0.87503   0.33047   0.97523   1.000
    O37     O    0.82427   0.36325   0.97814   1.000
    O38     O    0.92584   0.36297   0.97848   1.000
    N39     N    0.12500   0.02405   0.67081   1.000
    O40     O    0.07419   0.02096   0.63829   1.000
    O41     O    0.17581   0.02093   0.63831   1.000
    N42     N    0.37502   0.33047   0.97523   1.000
    O43     O    0.32426   0.36325   0.97814   1.000
    O44     O    0.42584   0.36297   0.97849   1.000
    N45     N    0.62500   0.02468   0.80673   1.000
    O46     O    0.57426   0.02192   0.84215   1.000
    O47     O    0.67575   0.02184   0.84221   1.000
    C48     C    0.37524   0.47747   0.07697   1.000
    O49     O    0.40644   0.48844   0.05179   1.000
    O50     O    0.34389   0.48846   0.05179   1.000
    C51     C    0.87525   0.47747   0.07697   1.000
    O52     O    0.90645   0.48844   0.05179   1.000
    O53     O    0.84390   0.48846   0.05179   1.000
    C54     C    0.12525   0.48253   0.94335   1.000
    O55     O    0.15639   0.49203   0.95901   1.000
    O56     O    0.09394   0.49201   0.95901   1.000
    C57     C    0.62526   0.48253   0.94335   1.000
    O58     O    0.65640   0.49203   0.95901   1.000
    O59     O    0.59395   0.49201   0.95901   1.000
    C60     C    0.37498   0.98052   0.94529   1.000
    O61     O    0.40626   0.98265   0.96587   1.000
    O62     O    0.34372   0.98262   0.96589   1.000
    C63     C    0.87499   0.98052   0.94529   1.000
    O64     O    0.90626   0.98265   0.96585   1.000
    O65     O    0.84374   0.98262   0.96589   1.000
    C66     C    0.12503   0.05572   0.01935   1.000
    O67     O    0.15625   0.03498   0.01752   1.000
    O68     O    0.09378   0.03501   0.01748   1.000
    C69     C    0.62504   0.05572   0.01935   1.000
    O70     O    0.59379   0.03501   0.01749   1.000
    O71     O    0.65626   0.03498   0.01752   1.000
    C72     C    0.87500   0.07591   0.47869   1.000
    O73     O    0.90621   0.05088   0.48885   1.000
    O74     O    0.84380   0.05088   0.48884   1.000
    C75     C    0.37498   0.07591   0.47869   1.000
    O76     O    0.34378   0.05088   0.48884   1.000
    O77     O    0.40621   0.05088   0.48885   1.000
    C78     C    0.62506   0.92378   0.52130   1.000
    O79     O    0.65634   0.94876   0.51125   1.000
    O80     O    0.59376   0.94876   0.51126   1.000
    C81     C    0.12505   0.92378   0.52130   1.000
    O82     O    0.15632   0.94876   0.51125   1.000
    O83     O    0.09374   0.94876   0.51126   1.000
    C84     C    0.37503   0.97179   0.19567   1.000
    O85     O    0.42578   0.97435   0.16061   1.000
    O86     O    0.32428   0.97430   0.16064   1.000
    O87     O    0.37504   0.96672   0.26576   1.000
    C88     C    0.62501   0.02405   0.67081   1.000
    O89     O    0.57420   0.02096   0.63829   1.000
    O90     O    0.67582   0.02093   0.63831   1.000
    O91     O    0.62501   0.03027   0.73583   1.000
    C92     C    0.12499   0.02468   0.80672   1.000
    O93     O    0.07425   0.02192   0.84214   1.000
    O94     O    0.17573   0.02184   0.84221   1.000
    O95     O    0.12500   0.03027   0.73583   1.000
    C96     C    0.37497   0.19420   0.97495   1.000
    O97     O    0.32419   0.15867   0.97790   1.000
    O98     O    0.42576   0.15871   0.97787   1.000
    O99     O    0.37497   0.26521   0.96907   1.000
    C100    C    0.87498   0.19420   0.97494   1.000
    O101    O    0.82421   0.15867   0.97790   1.000
    O102    O    0.92576   0.15871   0.97785   1.000
    O103    O    0.87498   0.26521   0.96907   1.000
    C104    C    0.62496   0.80518   0.02864   1.000
    O105    O    0.67569   0.84009   0.02628   1.000
    O106    O    0.57427   0.84017   0.02616   1.000
    O107    O    0.62493   0.73529   0.03349   1.000
    C108    C    0.87495   0.67655   0.81204   1.000
    O109    O    0.82419   0.64388   0.84676   1.000
    O110    O    0.92570   0.64345   0.84648   1.000
    O111    O    0.87497   0.74233   0.74289   1.000
    C112    C    0.12495   0.80518   0.02865   1.000
    O113    O    0.17568   0.84009   0.02628   1.000
    O114    O    0.07426   0.84017   0.02617   1.000
    O115    O    0.12491   0.73529   0.03349   1.000
    C116    C    0.12501   0.18934   0.32485   1.000
    O117    O    0.07423   0.15459   0.35785   1.000
    O118    O    0.17579   0.15459   0.35783   1.000
    O119    O    0.12502   0.25885   0.25887   1.000
    C120    C    0.87504   0.97179   0.19549   1.000
    O121    O    0.92578   0.97435   0.16046   1.000
    O122    O    0.82429   0.97430   0.16051   1.000
    O123    O    0.87505   0.96672   0.26550   1.000
    C124    C    0.62502   0.18934   0.32485   1.000
    O125    O    0.57424   0.15459   0.35785   1.000
    O126    O    0.67580   0.15459   0.35783   1.000
    O127    O    0.62504   0.25885   0.25887   1.000
    C128    C    0.37494   0.67655   0.81205   1.000
    O129    O    0.42570   0.64345   0.84648   1.000
    O130    O    0.32417   0.64388   0.84676   1.000
    O131    O    0.37496   0.74233   0.74290   1.000
loop_
    _geom_bond_atom_site_label_1
    _geom_bond_atom_site_label_2
    _geom_bond_distance
    _geom_bond_site_symmetry_2
    _ccdc_geom_bond_type
    N12    O13       1.05360      .   S
    Zr5    O13       3.45608      .   S
    N12    O14       1.05363      .   S
    Zr7    O14       3.45621      .   S
    N15    O16       1.05363      .   S
    Zr6    O16       3.45621      .   S
    N15    O17       1.05360      .   S
    Zr4    O17       3.45606      .   S
    N18    O19       1.05492      .   S
    Zr0    O19       3.46598      .   S
    N18    O20       1.05513      .   S
    Zr3    O20       3.46665      .   S
    N21    O22       1.05795      .   S
    Zr7    O22       3.49434      .   S
    N21    O23       1.05803      .   S
    Zr5    O23       3.49614      .   S
    N24    O25       1.05612      .   S
    Zr2    O25       3.48017      .   S
    N24    O26       1.05660      .   S
    Zr1    O26       3.48113      .   S
    N27    O28       1.05608      .   S
    Zr3    O28       3.48014      .   S
    N27    O29       1.05656      .   S
    Zr0    O29       3.48102      .   S
    N30    O31       1.05429      .   S
    Zr1    O31       3.46341      .   S
    N30    O32       1.05449      .   S
    Zr2    O32       3.46402      .   S
    N33    O34       1.05796      .   S
    Zr6    O34       3.49434      .   S
    N33    O35       1.05802      .   S
    Zr4    O35       3.49613      .   S
    N36    O37       1.05747      .   S
    Zr5    O37       3.48319  1_554   S
    N36    O38       1.05662      .   S
    Zr6    O38       3.48345  1_454   S
    N39    O40       1.05514      .   S
    Zr0    O40       3.46472  1_665   S
    N39    O41       1.05537      .   S
    Zr2    O41       3.46534  1_565   S
    N42    O43       1.05745      .   S
    Zr4    O43       3.48333  1_554   S
    N42    O44       1.05669      .   S
    Zr7    O44       3.48355  1_554   S
    N45    O46       1.05513      .   S
    Zr9    O46       3.47198  1_564   S
    N45    O47       1.05508      .   S
    Zr11   O47       3.47193  1_564   S
    C48    O49       0.66471      .   S
    Zr7    O49       1.71154      .   S
    C48    O50       0.66592      .   S
    Zr4    O50       1.71372      .   S
    C51    O52       0.66464      .   S
    Zr6    O52       1.71129  1_455   S
    C51    O53       0.66592      .   S
    Zr5    O53       1.71371      .   S
    C54    O55       0.66269      .   S
    Zr4    O55       1.70782  1_554   S
    C54    O56       0.66419      .   S
    Zr6    O56       1.71067  1_554   S
    C57    O58       0.66269      .   S
    Zr5    O58       1.70783  1_554   S
    C57    O59       0.66419      .   S
    Zr7    O59       1.71066  1_554   S
    C60    O61       0.66042      .   S
    Zr9    O61       1.70449  1_554   S
    C60    O62       0.66038      .   S
    Zr10   O62       1.70461  1_554   S
    C63    O64       0.66007      .   S
    Zr8    O64       1.70357  1_454   S
    C63    O65       0.66038      .   S
    Zr11   O65       1.70460  1_554   S
    C66    O67       0.65998      .   S
    Zr10   O67       1.70451  1_565   S
    C66    O68       0.66023      .   S
    Zr8    O68       1.70508  1_565   S
    C69    O70       0.66008      .   S
    Zr9    O70       1.70459  1_565   S
    C69    O71       0.65998      .   S
    Zr11   O71       1.70452  1_565   S
    C72    O73       0.66374      .   S
    Zr0    O73       1.71082  1_565   S
    C72    O74       0.66375      .   S
    Zr3    O74       1.71097  1_565   S
    C75    O76       0.66375      .   S
    Zr2    O76       1.71097  1_565   S
    C75    O77       0.66382      .   S
    Zr1    O77       1.71108  1_565   S
    C78    O79       0.66390      .   S
    Zr3    O79       1.71045      .   S
    C78    O80       0.66405      .   S
    Zr1    O80       1.71074      .   S
    C81    O82       0.66390      .   S
    Zr2    O82       1.71046      .   S
    C81    O83       0.66406      .   S
    Zr0    O83       1.71075  1_655   S
    C84    O85       1.05077      .   S
    Zr9    O85       3.42853      .   S
    C84    O86       1.05038      .   S
    Zr10   O86       3.42762      .   S
    C84    O87       1.48875      .   S
    N30    O87       1.49999      .   S
    C88    O89       1.05514      .   S
    Zr1    O89       3.46475  1_565   S
    C88    O90       1.05539      .   S
    Zr3    O90       3.46538  1_565   S
    C88    O91       1.50009      .   S
    N45    O91       1.50158      .   S
    C92    O93       1.05497      .   S
    Zr8    O93       3.47094  1_564   S
    C92    O94       1.05517      .   S
    Zr10   O94       3.47196  1_564   S
    C92    O95       1.50148      .   S
    N39    O95       1.50007      .   S
    C96    O97       1.05608      .   S
    Zr10   O97       3.47686  1_564   S
    C96    O98       1.05549      .   S
    Zr9    O98       3.47559  1_564   S
    C96    O99       1.50241      .   S
    N42    O99       1.50571      .   S
    C100   O101      1.05601      .   S
    Zr11   O101      3.47687  1_564   S
    C100   O102      1.05552      .   S
    Zr8    O102      3.47590  1_464   S
    C100   O103      1.50247      .   S
    N36    O103      1.50575      .   S
    C104   O105      1.04985      .   S
    Zr11   O105      3.42450      .   S
    C104   O106      1.04975      .   S
    Zr9    O106      3.42497      .   S
    C104   O107      1.48762      .   S
    N12    O107      1.49850      .   S
    C108   O109      1.05500      .   S
    Zr5    O109      3.46301  1_554   S
    C108   O110      1.05523      .   S
    Zr6    O110      3.46311  1_454   S
    C108   O111      1.50117      .   S
    N27    O111      1.50648      .   S
    C112   O113      1.04984      .   S
    Zr10   O113      3.42451      .   S
    C112   O114      1.04977      .   S
    Zr8    O114      3.42441      .   S
    C112   O115      1.48764      .   S
    N15    O115      1.49850      .   S
    C116   O117      1.05793      .   S
    Zr0    O117      3.48627  1_665   S
    C116   O118      1.05731      .   S
    Zr2    O118      3.48552  1_565   S
    C116   O119      1.50758      .   S
    N33    O119      1.50983      .   S
    C120   O121      1.05024      .   S
    Zr8    O121      3.42687  1_455   S
    C120   O122      1.04959      .   S
    Zr11   O122      3.42497      .   S
    C120   O123      1.48701      .   S
    N18    O123      1.50186      .   S
    C124   O125      1.05792      .   S
    Zr1    O125      3.48627  1_565   S
    C124   O126      1.05731      .   S
    Zr3    O126      3.48553  1_565   S
    C124   O127      1.50758      .   S
    N21    O127      1.50983      .   S
    C128   O129      1.05526      .   S
    Zr7    O129      3.46317  1_554   S
    C128   O130      1.05502      .   S
    Zr4    O130      3.46299  1_554   S
    C128   O131      1.50115      .   S
    N24    O131      1.50650      .   S
