# CIF file generated by openbabel 2.4.90, see http://openbabel.sf.net
data_I
_chemical_name_common ''
_cell_length_a 11.272
_cell_length_b 24.217
_cell_length_c 23.214
_cell_angle_alpha 98.079
_cell_angle_beta 90.007
_cell_angle_gamma 89.999
_space_group_name_H-M_alt 'P 1'
_space_group_name_Hall 'P 1'
loop_
    _symmetry_equiv_pos_as_xyz
    x,y,z
loop_
    _atom_site_label
    _atom_site_type_symbol
    _atom_site_fract_x
    _atom_site_fract_y
    _atom_site_fract_z
    _atom_site_occupancy
    Lv0     Lv   0.55505   0.94445   0.10286   1.000
    Lv1     Lv   0.80508   0.80553   0.39711   1.000
    Lv2     Lv   0.30507   0.30554   0.39713   1.000
    Lv3     Lv   0.69492   0.19447   0.60282   1.000
    Lv4     Lv   0.80508   0.30554   0.39713   1.000
    Lv5     Lv   0.05505   0.44445   0.10283   1.000
    Lv6     Lv   0.19493   0.69446   0.60282   1.000
    Lv7     Lv   0.30508   0.80553   0.39711   1.000
    Lv8     Lv   0.55505   0.44445   0.10283   1.000
    Lv9     Lv   0.44495   0.55555   0.89711   1.000
    Lv10    Lv   0.69493   0.69446   0.60284   1.000
    Lv11    Lv   0.19492   0.19447   0.60282   1.000
    Lv12    Lv   0.05505   0.94445   0.10286   1.000
    Lv13    Lv   0.94495   0.05555   0.89711   1.000
    Lv14    Lv   0.44495   0.05555   0.89711   1.000
    Lv15    Lv   0.94495   0.55555   0.89711   1.000
