# CIF file generated by openbabel 2.4.90, see http://openbabel.sf.net
data_I
_chemical_name_common ''
_cell_length_a 13.248
_cell_length_b 14.544
_cell_length_c 18.124
_cell_angle_alpha 89.98
_cell_angle_beta 89.858
_cell_angle_gamma 89.997
_space_group_name_H-M_alt 'P 1'
_space_group_name_Hall 'P 1'
loop_
    _symmetry_equiv_pos_as_xyz
    x,y,z
loop_
    _atom_site_label
    _atom_site_type_symbol
    _atom_site_fract_x
    _atom_site_fract_y
    _atom_site_fract_z
    _atom_site_occupancy
    H0      H    0.22232   0.15830   0.28373   1.000
    H1      H    0.09596   0.05052   0.23132   1.000
    H2      H    0.87656   0.25471   0.22749   1.000
    H3      H    0.56845   0.96032   0.00828   1.000
    H4      H    0.58647   0.87400   0.93960   1.000
    H5      H    0.69391   0.07925   0.02712   1.000
    H6      H    0.66445   0.96102   0.11700   1.000
    H7      H    0.75730   0.87383   0.13334   1.000
    H8      H    0.78624   0.75664   0.04169   1.000
    H9      H    0.27774   0.15813   0.71663   1.000
    H10     H    0.40403   0.05036   0.76907   1.000
    H11     H    0.62321   0.25481   0.77353   1.000
    H12     H    0.93162   0.96054   0.00000   1.000
    H13     H    0.91380   0.87427   0.06038   1.000
    H14     H    0.80599   0.07933   0.97259   1.000
    H15     H    0.83568   0.96089   0.88284   1.000
    H16     H    0.74288   0.87358   0.86667   1.000
    H17     H    0.71416   0.75652   0.95851   1.000
    H18     H    0.27697   0.65886   0.78410   1.000
    H19     H    0.40321   0.55087   0.73127   1.000
    H20     H    0.62317   0.75460   0.72721   1.000
    H21     H    0.93130   0.46070   0.50786   1.000
    H22     H    0.91343   0.37437   0.43922   1.000
    H23     H    0.80569   0.57950   0.52724   1.000
    H24     H    0.83549   0.46114   0.61698   1.000
    H25     H    0.74271   0.37383   0.63363   1.000
    H26     H    0.71392   0.25670   0.54203   1.000
    H27     H    0.22240   0.65843   0.21665   1.000
    H28     H    0.09575   0.55075   0.26938   1.000
    H29     H    0.87615   0.75479   0.27263   1.000
    H30     H    0.56812   0.46040   0.49266   1.000
    H31     H    0.58624   0.37412   0.56133   1.000
    H32     H    0.69358   0.57943   0.47315   1.000
    H33     H    0.66395   0.46102   0.38352   1.000
    H34     H    0.75685   0.37385   0.36688   1.000
    H35     H    0.78593   0.25673   0.45858   1.000
    H36     H    0.72300   0.34117   0.21590   1.000
    H37     H    0.59676   0.44916   0.26872   1.000
    H38     H    0.37680   0.24543   0.27279   1.000
    H39     H    0.06867   0.53932   0.49214   1.000
    H40     H    0.08653   0.62566   0.56078   1.000
    H41     H    0.19429   0.42053   0.47277   1.000
    H42     H    0.16448   0.53888   0.38302   1.000
    H43     H    0.25725   0.62619   0.36637   1.000
    H44     H    0.28603   0.74333   0.45797   1.000
    H45     H    0.77757   0.34160   0.78335   1.000
    H46     H    0.90422   0.44928   0.73062   1.000
    H47     H    0.12382   0.24524   0.72737   1.000
    H48     H    0.43184   0.53965   0.50734   1.000
    H49     H    0.41372   0.62592   0.43866   1.000
    H50     H    0.30639   0.42060   0.52685   1.000
    H51     H    0.33602   0.53903   0.61648   1.000
    H52     H    0.24311   0.62618   0.63312   1.000
    H53     H    0.21402   0.74330   0.54142   1.000
    H54     H    0.77765   0.84173   0.71628   1.000
    H55     H    0.90401   0.94951   0.76868   1.000
    H56     H    0.12341   0.74532   0.77251   1.000
    H57     H    0.43152   0.03971   0.00000   1.000
    H58     H    0.41349   0.12604   0.06041   1.000
    H59     H    0.30606   0.92078   0.97288   1.000
    H60     H    0.33552   0.03902   0.88300   1.000
    H61     H    0.24267   0.12620   0.86667   1.000
    H62     H    0.21373   0.24339   0.95832   1.000
    H63     H    0.72223   0.84190   0.28337   1.000
    H64     H    0.59594   0.94967   0.23094   1.000
    H65     H    0.37676   0.74522   0.22647   1.000
    H66     H    0.06835   0.03949   0.00846   1.000
    H67     H    0.08617   0.12576   0.93962   1.000
    H68     H    0.19398   0.92070   0.02742   1.000
    H69     H    0.16428   0.03914   0.11717   1.000
    H70     H    0.25709   0.12645   0.13333   1.000
    H71     H    0.28581   0.24351   0.04149   1.000
    C72     C    0.97355   0.88999   0.20241   1.000
    C73     C    0.01741   0.79940   0.22620   1.000
    C74     C    0.11847   0.77385   0.21351   1.000
    C75     C    0.20051   0.33985   0.30918   1.000
    C76     C    0.14605   0.68261   0.22793   1.000
    C77     C    0.07615   0.62214   0.25810   1.000
    C78     C    0.95341   0.23499   0.24126   1.000
    C79     C    0.87562   0.91629   0.01878   1.000
    C80     C    0.77926   0.91610   0.90895   1.000
    C81     C    0.52659   0.88985   0.79779   1.000
    C82     C    0.48224   0.79942   0.77407   1.000
    C83     C    0.38117   0.77409   0.78701   1.000
    C84     C    0.29950   0.33966   0.69091   1.000
    C85     C    0.35335   0.68288   0.77268   1.000
    C86     C    0.42302   0.62223   0.74244   1.000
    C87     C    0.54642   0.23504   0.75962   1.000
    C88     C    0.62456   0.91612   0.98115   1.000
    C89     C    0.72092   0.91623   0.09096   1.000
    C90     C    0.52649   0.38988   0.70295   1.000
    C91     C    0.48238   0.29934   0.72678   1.000
    O92     O    0.21810   0.90697   0.23410   1.000
    O93     O    0.38618   0.58933   0.27162   1.000
    O94     O    0.52002   0.06135   0.15531   1.000
    O95     O    0.75517   0.17965   0.13494   1.000
    C96     C    0.38147   0.27375   0.71392   1.000
    C97     C    0.29928   0.84047   0.80961   1.000
    C98     C    0.35393   0.18240   0.72809   1.000
    C99     C    0.42367   0.12185   0.75812   1.000
    C100    C    0.54623   0.73502   0.74113   1.000
    C101    C    0.62428   0.41623   0.51960   1.000
    C102    C    0.72049   0.41626   0.40936   1.000
    C103    C    0.97340   0.38997   0.29762   1.000
    C104    C    0.01746   0.29933   0.27396   1.000
    C105    C    0.11844   0.27378   0.28670   1.000
    C106    C    0.20054   0.83994   0.19081   1.000
    C107    C    0.14603   0.18247   0.27245   1.000
    C108    C    0.07627   0.12194   0.24246   1.000
    C109    C    0.95316   0.73512   0.25902   1.000
    C110    C    0.87527   0.41641   0.48092   1.000
    C111    C    0.77904   0.41631   0.59115   1.000
    C112    C    0.75002   0.03534   0.99989   1.000
    C113    C    0.75017   0.80058   0.00006   1.000
    C114    C    0.74967   0.53551   0.50021   1.000
    C115    C    0.74989   0.30073   0.50028   1.000
    C116    C    0.47348   0.61015   0.29705   1.000
    C117    C    0.51759   0.70069   0.27322   1.000
    C118    C    0.61850   0.72628   0.28608   1.000
    C119    C    0.70069   0.15956   0.19039   1.000
    C120    C    0.64604   0.81763   0.27191   1.000
    C121    C    0.57630   0.87818   0.24188   1.000
    C122    C    0.45374   0.26501   0.25887   1.000
    C123    C    0.37568   0.58381   0.48040   1.000
    C124    C    0.27947   0.58377   0.59064   1.000
    C125    C    0.02657   0.61006   0.70239   1.000
    C126    C    0.98250   0.70070   0.72604   1.000
    C127    C    0.88153   0.72625   0.71330   1.000
    C128    C    0.79943   0.16009   0.80919   1.000
    C129    C    0.85394   0.81756   0.72755   1.000
    C130    C    0.92370   0.87809   0.75754   1.000
    C131    C    0.04681   0.26491   0.74098   1.000
    C132    C    0.12469   0.58361   0.51908   1.000
    C133    C    0.22092   0.58371   0.40885   1.000
    C134    C    0.02642   0.11004   0.79759   1.000
    C135    C    0.98256   0.20063   0.77380   1.000
    C136    C    0.88150   0.22618   0.78649   1.000
    C137    C    0.79946   0.66018   0.69083   1.000
    C138    C    0.85392   0.31743   0.77207   1.000
    C139    C    0.92382   0.37789   0.74190   1.000
    C140    C    0.04656   0.76504   0.75874   1.000
    C141    C    0.12434   0.08374   0.98122   1.000
    C142    C    0.22071   0.08393   0.09105   1.000
    C143    C    0.47338   0.11018   0.20221   1.000
    C144    C    0.51773   0.20061   0.22593   1.000
    C145    C    0.61880   0.22594   0.21300   1.000
    C146    C    0.70047   0.66037   0.30909   1.000
    C147    C    0.64662   0.31715   0.22732   1.000
    C148    C    0.57695   0.37780   0.25756   1.000
    C149    C    0.45355   0.76499   0.24038   1.000
    C150    C    0.37541   0.08391   0.01886   1.000
    C151    C    0.27905   0.08380   0.90904   1.000
    C152    C    0.25031   0.46452   0.49979   1.000
    C153    C    0.25006   0.69931   0.49971   1.000
    C154    C    0.24995   0.96468   0.00011   1.000
    C155    C    0.24979   0.19944   0.99994   1.000
    N156    N    0.98137   0.64872   0.27595   1.000
    N157    N    0.80029   0.97707   0.05687   1.000
    N158    N    0.82788   0.85759   0.96369   1.000
    N159    N    0.51783   0.64863   0.72438   1.000
    N160    N    0.69985   0.97693   0.94296   1.000
    N161    N    0.67239   0.85758   0.03632   1.000
    N162    N    0.51826   0.14850   0.77623   1.000
    N163    N    0.69959   0.47709   0.55739   1.000
    N164    N    0.67204   0.35765   0.46427   1.000
    N165    N    0.98162   0.14850   0.22454   1.000
    N166    N    0.79987   0.47717   0.44307   1.000
    N167    N    0.82761   0.35778   0.53628   1.000
    N168    N    0.48171   0.85153   0.22377   1.000
    N169    N    0.30038   0.52294   0.44262   1.000
    N170    N    0.32792   0.64238   0.53573   1.000
    N171    N    0.01835   0.85153   0.77546   1.000
    N172    N    0.20010   0.52286   0.55693   1.000
    N173    N    0.17234   0.64225   0.46372   1.000
    N174    N    0.01860   0.35131   0.72405   1.000
    N175    N    0.19968   0.02296   0.94313   1.000
    N176    N    0.17209   0.14244   0.03632   1.000
    N177    N    0.48214   0.35141   0.27562   1.000
    N178    N    0.30012   0.02310   0.05704   1.000
    N179    N    0.32758   0.14245   0.96368   1.000
    O180    O    0.88603   0.91078   0.22781   1.000
    O181    O    0.02063   0.43920   0.34377   1.000
    O182    O    0.25330   0.32056   0.36543   1.000
    O183    O    0.21816   0.40691   0.26583   1.000
    O184    O    0.61373   0.91070   0.77177   1.000
    O185    O    0.47951   0.43892   0.65649   1.000
    O186    O    0.24818   0.32059   0.63397   1.000
    O187    O    0.28046   0.40636   0.73433   1.000
    O188    O    0.61379   0.41070   0.72838   1.000
    O189    O    0.47995   0.93868   0.84469   1.000
    O190    O    0.24480   0.82038   0.86506   1.000
    O191    O    0.28353   0.90878   0.76723   1.000
    O192    O    0.88598   0.41066   0.27226   1.000
    O193    O    0.02103   0.93909   0.15610   1.000
    O194    O    0.25345   0.82061   0.13446   1.000
    O195    O    0.71644   0.09125   0.23277   1.000
    O196    O    0.11399   0.58937   0.72774   1.000
    O197    O    0.97894   0.06094   0.84391   1.000
    O198    O    0.74652   0.17942   0.86554   1.000
    O199    O    0.78187   0.09306   0.76590   1.000
    O200    O    0.11395   0.08925   0.77220   1.000
    O201    O    0.97934   0.56083   0.65623   1.000
    O202    O    0.74667   0.67948   0.63457   1.000
    O203    O    0.78181   0.59312   0.73417   1.000
    O204    O    0.38624   0.08933   0.22823   1.000
    O205    O    0.52046   0.56111   0.34351   1.000
    O206    O    0.75179   0.67944   0.36603   1.000
    O207    O    0.71951   0.59367   0.26568   1.000
loop_
    _geom_bond_atom_site_label_1
    _geom_bond_atom_site_label_2
    _geom_bond_distance
    _geom_bond_site_symmetry_2
    _ccdc_geom_bond_type
    H12    C79       1.03868      .   S
    H57    C150      1.03993      .   S
    C113   N161      1.47582      .   S
    C113   H8        1.09874      .   S
    C113   H17       1.09883  1_554   S
    C113   N158      1.47591  1_554   S
    C154   H68       1.09634      .   S
    C154   N178      1.49406  1_565   S
    C154   N175      1.49374  1_564   S
    C154   H59       1.09645  1_554   S
    H3     C88       1.09815  1_554   S
    H66    C141      1.09821  1_554   S
    C79    N157      1.50037      .   S
    C79    H13       1.09523      .   S
    C79    N158      1.45939  1_554   S
    C150   N178      1.50076      .   S
    C150   H58       1.09510      .   S
    C150   N179      1.45906  1_554   S
    H5     C112      1.09653  1_554   S
    N176   C142      1.45801      .   S
    N176   C141      1.45938  1_554   S
    N176   C155      1.47581  1_554   S
    N161   C89       1.45788      .   S
    N161   C88       1.45905  1_554   S
    H71    C155      1.09892  1_554   S
    N157   C89       1.50562      .   S
    N157   C112      1.49366  1_564   S
    N178   C142      1.50551      .   S
    C89    H6        1.09773      .   S
    C89    H7        1.09723      .   S
    C142   H69       1.09779      .   S
    C142   H70       1.09730      .   S
    O194   C106      1.26883      .   S
    O95    C119      1.26988      .   S
    O94    C143      1.26756      .   S
    O193   C72       1.26776  1_455   S
    C119   C145      1.50828      .   S
    C119   O195      1.27314      .   S
    C106   C74       1.50769      .   S
    C106   O92       1.27350      .   S
    C143   C144      1.50382      .   S
    C143   O204      1.28226      .   S
    C72    C73       1.50340  1_655   S
    C72    O180      1.28267      .   S
    C145   C144      1.40782      .   S
    C145   C147      1.40130      .   S
    C74    C73       1.40774      .   S
    C74    C76       1.40110      .   S
    H36    C147      1.08984      .   S
    H27    C76       1.08984      .   S
    N168   C149      1.34656      .   S
    N168   C121      1.35293      .   S
    N165   C78       1.34666      .   S
    N165   C108      1.35239  1_655   S
    C144   C122      1.39650      .   S
    C73    C109      1.39629  1_455   S
    H65    C149      1.08738      .   S
    C147   C148      1.38852      .   S
    H2     C78       1.08734      .   S
    C76    C77       1.38820      .   S
    H64    C121      1.08977      .   S
    H1     C108      1.08968      .   S
    C149   C117      1.39668      .   S
    C78    C104      1.39642  1_655   S
    C121   C120      1.38829      .   S
    C108   C107      1.38836      .   S
    C148   H37       1.08976      .   S
    C148   N177      1.35279      .   S
    C77    H28       1.08964      .   S
    C77    N156      1.35235  1_455   S
    C122   H38       1.08736      .   S
    C122   N177      1.34663      .   S
    C109   H29       1.08735      .   S
    C109   N156      1.34649      .   S
    O207   C146      1.27414      .   S
    O183   C75       1.27345      .   S
    O93    C116      1.28240      .   S
    C120   H63       1.08986      .   S
    C120   C118      1.40132      .   S
    O192   C103      1.28280      .   S
    C107   H0        1.08985      .   S
    C107   C105      1.40121      .   S
    C117   C118      1.40768      .   S
    C117   C116      1.50359      .   S
    C104   C105      1.40791      .   S
    C104   C103      1.50373  1_455   S
    C118   C146      1.50802      .   S
    C105   C75       1.50808      .   S
    C116   O205      1.26765      .   S
    C103   O181      1.26765  1_655   S
    C146   O206      1.26802      .   S
    C75    O182      1.26906      .   S
    H43    C133      1.09724      .   S
    H34    C102      1.09724      .   S
    H42    C133      1.09785      .   S
    H33    C102      1.09794      .   S
    C133   N169      1.50559      .   S
    C133   N173      1.45782      .   S
    C102   N166      1.50582      .   S
    C102   N164      1.45780      .   S
    H49    C123      1.09504      .   S
    H22    C110      1.09506      .   S
    N169   C123      1.50068      .   S
    N169   C152      1.49389      .   S
    N166   C110      1.50075      .   S
    N166   C114      1.49401      .   S
    H44    C153      1.09881      .   S
    H35    C115      1.09877      .   S
    N173   C153      1.47587      .   S
    N173   C132      1.45906      .   S
    N164   C115      1.47587      .   S
    N164   C101      1.45909      .   S
    H41    C152      1.09644      .   S
    H32    C114      1.09643      .   S
    C123   H48       1.09813      .   S
    C123   N170      1.45908      .   S
    C110   H21       1.09819      .   S
    C110   N167      1.45906      .   S
    H39    C132      1.09819      .   S
    H30    C101      1.09813      .   S
    C153   N170      1.47588      .   S
    C153   H53       1.09877      .   S
    C152   H50       1.09644      .   S
    C152   N172      1.49400      .   S
    C114   H23       1.09644      .   S
    C114   N163      1.49391      .   S
    C115   N167      1.47585      .   S
    C115   H26       1.09883      .   S
    C132   N172      1.50076      .   S
    C132   H40       1.09505      .   S
    C101   N163      1.50068      .   S
    C101   H31       1.09503      .   S
    N170   C124      1.45779      .   S
    N167   C111      1.45783      .   S
    N172   C124      1.50582      .   S
    N163   C111      1.50558      .   S
    C124   H51       1.09794      .   S
    C124   H52       1.09723      .   S
    C111   H24       1.09784      .   S
    C111   H25       1.09724      .   S
    O186   C84       1.26803      .   S
    O202   C137      1.26906      .   S
    O201   C125      1.26766  1_655   S
    O185   C90       1.26766      .   S
    C137   C127      1.50809      .   S
    C137   O203      1.27345      .   S
    C84    C96       1.50802      .   S
    C84    O187      1.27414      .   S
    C125   C126      1.50373  1_455   S
    C125   O196      1.28279      .   S
    C90    C91       1.50358      .   S
    C90    O188      1.28242      .   S
    C127   C126      1.40790      .   S
    C127   C129      1.40120      .   S
    C96    C91       1.40767      .   S
    C96    C98       1.40133      .   S
    H54    C129      1.08986      .   S
    H9     C98       1.08986      .   S
    N174   C131      1.34650      .   S
    N174   C139      1.35234  1_455   S
    N159   C100      1.34664      .   S
    N159   C86       1.35279      .   S
    C126   C140      1.39644  1_655   S
    C91    C87       1.39669      .   S
    H20    C100      1.08738      .   S
    H47    C131      1.08734      .   S
    C129   C130      1.38836      .   S
    C98    C99       1.38829      .   S
    H46    C139      1.08965      .   S
    H19    C86       1.08977      .   S
    C131   C135      1.39629  1_455   S
    C100   C82       1.39651      .   S
    C139   C138      1.38819      .   S
    C86    C85       1.38853      .   S
    C130   H55       1.08968      .   S
    C130   N171      1.35239  1_655   S
    C99    H10       1.08979      .   S
    C99    N162      1.35291      .   S
    C140   H56       1.08733      .   S
    C140   N171      1.34665      .   S
    C87    H11       1.08738      .   S
    C87    N162      1.34656      .   S
    O199   C128      1.27350      .   S
    O191   C97       1.27314      .   S
    O184   C81       1.28226      .   S
    C138   H45       1.08982      .   S
    C138   C136      1.40110      .   S
    O200   C134      1.28269      .   S
    C85    H18       1.08982      .   S
    C85    C83       1.40129      .   S
    C135   C136      1.40774      .   S
    C135   C134      1.50341  1_655   S
    C82    C83       1.40781      .   S
    C82    C81       1.50383      .   S
    C136   C128      1.50770      .   S
    C83    C97       1.50829      .   S
    C134   O197      1.26775  1_455   S
    C81    O189      1.26754      .   S
    C128   O198      1.26884      .   S
    C97    O190      1.26988      .   S
    H61    C151      1.09723      .   S
    H16    C80       1.09730      .   S
    H15    C80       1.09779      .   S
    H60    C151      1.09775      .   S
    C80    N160      1.50552      .   S
    C80    N158      1.45798      .   S
    C151   N175      1.50562      .   S
    C151   N179      1.45787      .   S
    H4     C88       1.09511      .   S
    H67    C141      1.09522      .   S
    N160   C88       1.50075      .   S
    N160   C112      1.49396  1_565   S
    N175   C141      1.50037      .   S
    H62    C155      1.09881      .   S
    N179   C155      1.47575      .   S
    H14    C112      1.09643      .   S
