# CIF file generated by openbabel 2.4.90, see http://openbabel.sf.net
data_I
_chemical_name_common ''
_cell_length_a 9.898
_cell_length_b 16.558
_cell_length_c 12.187
_cell_angle_alpha 89.965
_cell_angle_beta 89.971
_cell_angle_gamma 91.592
_space_group_name_H-M_alt 'P 1'
_space_group_name_Hall 'P 1'
loop_
    _symmetry_equiv_pos_as_xyz
    x,y,z
loop_
    _atom_site_label
    _atom_site_type_symbol
    _atom_site_fract_x
    _atom_site_fract_y
    _atom_site_fract_z
    _atom_site_occupancy
    N0      N    0.49998   0.24999   0.99998   1.000
    N1      N    0.99997   0.74998   0.99998   1.000
    N2      N    0.49997   0.74998   0.49998   1.000
    N3      N    0.49998   0.74998   0.99997   1.000
    N4      N    0.99998   0.74998   0.49997   1.000
    N5      N    0.99998   0.24999   0.99997   1.000
    N6      N    0.99998   0.24999   0.49998   1.000
    N7      N    0.49998   0.24999   0.49998   1.000
    Zr8     Zr   0.24999   0.00000   0.00000   1.000
    O9      O    0.17431   0.92545   0.99954   1.000
    O10     O    0.33116   0.93007   0.99492   1.000
    O11     O    0.16881   0.06992   0.00506   1.000
    O12     O    0.32567   0.07453   0.00045   1.000
    Zr13    Zr   0.81660   0.96545   0.24998   1.000
    O14     O    0.88963   0.89655   0.17442   1.000
    O15     O    0.88971   0.89659   0.32554   1.000
    Zr16    Zr   0.68334   0.03452   0.74998   1.000
    O17     O    0.61023   0.10338   0.67442   1.000
    O18     O    0.61031   0.10342   0.82554   1.000
    Zr19    Zr   0.74997   0.49998   0.99997   1.000
    O20     O    0.82565   0.57452   0.00043   1.000
    O21     O    0.66880   0.56991   0.00504   1.000
    O22     O    0.83115   0.43006   0.99490   1.000
    O23     O    0.67429   0.42545   0.99952   1.000
    Zr24    Zr   0.68333   0.53451   0.74998   1.000
    O25     O    0.61030   0.60341   0.82554   1.000
    O26     O    0.61023   0.60336   0.67442   1.000
    Zr27    Zr   0.18335   0.53451   0.74998   1.000
    O28     O    0.11032   0.60341   0.82554   1.000
    O29     O    0.11024   0.60336   0.67442   1.000
    Zr30    Zr   0.31662   0.46546   0.24998   1.000
    O31     O    0.38973   0.39661   0.32554   1.000
    O32     O    0.38965   0.39656   0.17442   1.000
    Zr33    Zr   0.18335   0.03452   0.74998   1.000
    O34     O    0.11032   0.10342   0.82554   1.000
    O35     O    0.11025   0.10338   0.67442   1.000
    Zr36    Zr   0.31662   0.96545   0.24998   1.000
    O37     O    0.38965   0.89655   0.17442   1.000
    O38     O    0.38972   0.89659   0.32554   1.000
    Zr39    Zr   0.81661   0.46546   0.24998   1.000
    O40     O    0.88964   0.39656   0.17442   1.000
    O41     O    0.88971   0.39661   0.32554   1.000
    Zr42    Zr   0.24999   0.49999   0.00000   1.000
    O43     O    0.32566   0.57452   0.00044   1.000
    O44     O    0.17431   0.42545   0.99953   1.000
    O45     O    0.33116   0.43006   0.99492   1.000
    O46     O    0.16881   0.56991   0.00507   1.000
    Zr47    Zr   0.24999   0.49998   0.49998   1.000
    O48     O    0.16881   0.56991   0.49490   1.000
    O49     O    0.32565   0.57452   0.49950   1.000
    O50     O    0.17431   0.42545   0.50046   1.000
    O51     O    0.33116   0.43006   0.50505   1.000
    Zr52    Zr   0.74997   1.00000   0.49998   1.000
    O53     O    0.83115   0.93006   0.50505   1.000
    O54     O    0.67430   0.92545   0.50046   1.000
    O55     O    0.82565   0.07453   0.49950   1.000
    O56     O    0.66880   0.06992   0.49491   1.000
    Zr57    Zr   0.74997   0.49998   0.49998   1.000
    O58     O    0.82564   0.57452   0.49950   1.000
    O59     O    0.66880   0.56991   0.49491   1.000
    O60     O    0.83114   0.43006   0.50504   1.000
    O61     O    0.67430   0.42545   0.50046   1.000
    Zr62    Zr   0.74997   0.00000   0.99999   1.000
    O63     O    0.83115   0.93007   0.99491   1.000
    O64     O    0.67429   0.92545   0.99953   1.000
    O65     O    0.82566   0.07453   0.00044   1.000
    O66     O    0.66880   0.06992   0.00506   1.000
    Zr67    Zr   0.24999   1.00000   0.49998   1.000
    O68     O    0.17432   0.92545   0.50046   1.000
    O69     O    0.33116   0.93006   0.50504   1.000
    O70     O    0.16882   0.06992   0.49491   1.000
    O71     O    0.32566   0.07453   0.49950   1.000
loop_
    _geom_bond_atom_site_label_1
    _geom_bond_atom_site_label_2
    _geom_bond_distance
    _geom_bond_site_symmetry_2
    _ccdc_geom_bond_type
    Zr8    O9        1.42598  1_544   S
    N1     O9        3.33783  1_655   S
    Zr8    O10       1.42895  1_544   S
    N3     O10       3.45895      .   S
    Zr8    O11       1.42882      .   S
    N5     O11       3.45878  1_656   S
    Zr8    O12       1.42577      .   S
    N0     O12       3.33746  1_556   S
    Zr13   O14       1.64882      .   S
    N1     O14       3.42831  1_556   S
    Zr13   O15       1.64820      .   S
    N4     O15       3.42742      .   S
    Zr16   O17       1.64820      .   S
    N7     O17       3.42740      .   S
    Zr16   O18       1.64880      .   S
    N0     O18       3.42829      .   S
    Zr19   O20       1.42581  1_556   S
    N1     O20       3.33755  1_556   S
    Zr19   O21       1.42882  1_556   S
    N3     O21       3.45874  1_556   S
    Zr19   O22       1.42883      .   S
    N5     O22       3.45877      .   S
    Zr19   O23       1.42578      .   S
    N0     O23       3.33746      .   S
    Zr24   O25       1.64878      .   S
    N3     O25       3.42821      .   S
    Zr24   O26       1.64819      .   S
    N2     O26       3.42745      .   S
    Zr27   O28       1.64882      .   S
    N1     O28       3.42833  1_655   S
    Zr27   O29       1.64823      .   S
    N4     O29       3.42748  1_655   S
    Zr30   O31       1.64820      .   S
    N7     O31       3.42741      .   S
    Zr30   O32       1.64880      .   S
    N0     O32       3.42827  1_556   S
    Zr33   O34       1.64881      .   S
    N5     O34       3.42827  1_655   S
    Zr33   O35       1.64821      .   S
    N6     O35       3.42749  1_655   S
    Zr36   O37       1.64881      .   S
    N3     O37       3.42833  1_556   S
    Zr36   O38       1.64819      .   S
    N2     O38       3.42740      .   S
    Zr39   O40       1.64883      .   S
    N5     O40       3.42835  1_556   S
    Zr39   O41       1.64822      .   S
    N6     O41       3.42745      .   S
    Zr42   O43       1.42577      .   S
    N3     O43       3.33746  1_556   S
    Zr42   O44       1.42582  1_554   S
    N5     O44       3.33755  1_655   S
    Zr42   O45       1.42883  1_554   S
    N0     O45       3.45874      .   S
    Zr42   O46       1.42883      .   S
    N1     O46       3.45877  1_656   S
    Zr47   O48       1.42883      .   S
    N4     O48       3.45881  1_655   S
    Zr47   O49       1.42576      .   S
    N2     O49       3.33750      .   S
    Zr47   O50       1.42578      .   S
    N6     O50       3.33757  1_655   S
    Zr47   O51       1.42880      .   S
    N7     O51       3.45873      .   S
    Zr52   O53       1.42895      .   S
    N4     O53       3.45902      .   S
    Zr52   O54       1.42592      .   S
    N2     O54       3.33778      .   S
    Zr52   O55       1.42577  1_565   S
    N6     O55       3.33756      .   S
    Zr52   O56       1.42881  1_565   S
    N7     O56       3.45874      .   S
    Zr57   O58       1.42578      .   S
    N4     O58       3.33757      .   S
    Zr57   O59       1.42880      .   S
    N2     O59       3.45873      .   S
    Zr57   O60       1.42883      .   S
    N6     O60       3.45881      .   S
    Zr57   O61       1.42575      .   S
    N7     O61       3.33750      .   S
    Zr62   O63       1.42897  1_545   S
    N1     O63       3.45902      .   S
    Zr62   O64       1.42595  1_545   S
    N3     O64       3.33776      .   S
    Zr62   O65       1.42580  1_556   S
    N5     O65       3.33753  1_556   S
    Zr62   O66       1.42881  1_556   S
    N0     O66       3.45871  1_556   S
    Zr67   O68       1.42594      .   S
    N4     O68       3.33784  1_655   S
    Zr67   O69       1.42892      .   S
    N2     O69       3.45895      .   S
    Zr67   O70       1.42883  1_565   S
    N6     O70       3.45881  1_655   S
    Zr67   O71       1.42576  1_565   S
    N7     O71       3.33751      .   S
