# CIF file generated by openbabel 2.4.90, see http://openbabel.sf.net
data_I
_chemical_name_common ''
_cell_length_a 23.047
_cell_length_b 15.562
_cell_length_c 16.219
_cell_angle_alpha 89.978
_cell_angle_beta 89.974
_cell_angle_gamma 90.074
_space_group_name_H-M_alt 'P 1'
_space_group_name_Hall 'P 1'
loop_
    _symmetry_equiv_pos_as_xyz
    x,y,z
loop_
    _atom_site_label
    _atom_site_type_symbol
    _atom_site_fract_x
    _atom_site_fract_y
    _atom_site_fract_z
    _atom_site_occupancy
    P0      P    0.12732   0.81823   0.82009   1.000
    P1      P    0.62725   0.81815   0.82021   1.000
    P2      P    0.15529   0.96783   0.54325   1.000
    P3      P    0.65422   0.96686   0.54328   1.000
    P4      P    0.12272   0.18182   0.32016   1.000
    P5      P    0.62275   0.18185   0.32019   1.000
    P6      P    0.09577   0.03311   0.04320   1.000
    P7      P    0.59575   0.03291   0.04331   1.000
    P8      P    0.37272   0.31823   0.67987   1.000
    P9      P    0.87273   0.31817   0.67996   1.000
    P10     P    0.34457   0.46787   0.95666   1.000
    P11     P    0.84462   0.46784   0.95674   1.000
    P12     P    0.37723   0.68191   0.17977   1.000
    P13     P    0.87731   0.68181   0.17992   1.000
    P14     P    0.40445   0.53341   0.45669   1.000
    P15     P    0.90546   0.53210   0.45676   1.000
    H16     H    0.19457   0.75805   0.74279   1.000
    H17     H    0.69457   0.75813   0.74288   1.000
    H18     H    0.23102   0.04825   0.53461   1.000
    H19     H    0.73041   0.04604   0.53354   1.000
    H20     H    0.11593   0.02669   0.70183   1.000
    H21     H    0.61552   0.02652   0.70199   1.000
    H22     H    0.43569   0.17214   0.74512   1.000
    H23     H    0.93594   0.17198   0.74519   1.000
    H24     H    0.16442   0.96430   0.81152   1.000
    H25     H    0.66405   0.96441   0.81167   1.000
    H26     H    0.09004   0.96297   0.83353   1.000
    H27     H    0.58969   0.96269   0.83383   1.000
    H28     H    0.19751   0.93099   0.67677   1.000
    H29     H    0.69706   0.93140   0.67666   1.000
    H30     H    0.14684   0.85175   0.64309   1.000
    H31     H    0.64662   0.85145   0.64383   1.000
    H32     H    0.04379   0.86815   0.68189   1.000
    H33     H    0.54332   0.86795   0.68243   1.000
    H34     H    0.04624   0.96050   0.61474   1.000
    H35     H    0.54577   0.96005   0.61502   1.000
    H36     H    0.48978   0.87703   0.81521   1.000
    H37     H    0.99018   0.87679   0.81470   1.000
    H38     H    0.41846   0.95606   0.90171   1.000
    H39     H    0.91880   0.95556   0.90134   1.000
    H40     H    0.39505   0.11157   0.86360   1.000
    H41     H    0.89533   0.11114   0.86358   1.000
    H42     H    0.00194   0.10085   0.65717   1.000
    H43     H    0.50162   0.10070   0.65716   1.000
    H44     H    0.05543   0.24185   0.24285   1.000
    H45     H    0.55548   0.24186   0.24286   1.000
    H46     H    0.01967   0.95378   0.03346   1.000
    H47     H    0.51971   0.95343   0.03362   1.000
    H48     H    0.13453   0.97351   0.20190   1.000
    H49     H    0.63452   0.97342   0.20213   1.000
    H50     H    0.31433   0.82828   0.24486   1.000
    H51     H    0.81425   0.82800   0.24491   1.000
    H52     H    0.08588   0.03559   0.31170   1.000
    H53     H    0.58588   0.03562   0.31182   1.000
    H54     H    0.16024   0.03724   0.33374   1.000
    H55     H    0.66024   0.03725   0.33383   1.000
    H56     H    0.05279   0.06795   0.17671   1.000
    H57     H    0.55278   0.06788   0.17678   1.000
    H58     H    0.10293   0.14839   0.14387   1.000
    H59     H    0.60292   0.14827   0.14388   1.000
    H60     H    0.20646   0.13233   0.18228   1.000
    H61     H    0.70649   0.13219   0.18235   1.000
    H62     H    0.20416   0.04028   0.11486   1.000
    H63     H    0.70414   0.04014   0.11493   1.000
    H64     H    0.26023   0.12336   0.31485   1.000
    H65     H    0.76025   0.12312   0.31496   1.000
    H66     H    0.33171   0.04439   0.40114   1.000
    H67     H    0.83164   0.04405   0.40129   1.000
    H68     H    0.35514   0.88895   0.36309   1.000
    H69     H    0.85498   0.88853   0.36322   1.000
    H70     H    0.24829   0.89963   0.15707   1.000
    H71     H    0.74828   0.89949   0.15706   1.000
    H72     H    0.30538   0.25779   0.75708   1.000
    H73     H    0.80541   0.25775   0.75710   1.000
    H74     H    0.26893   0.54814   0.96550   1.000
    H75     H    0.76897   0.54811   0.96552   1.000
    H76     H    0.38425   0.52670   0.79806   1.000
    H77     H    0.88416   0.52665   0.79814   1.000
    H78     H    0.06421   0.67205   0.75495   1.000
    H79     H    0.56433   0.67172   0.75511   1.000
    H80     H    0.33587   0.46429   0.68816   1.000
    H81     H    0.83583   0.46420   0.68827   1.000
    H82     H    0.41031   0.46294   0.66663   1.000
    H83     H    0.91025   0.46292   0.66660   1.000
    C84     C    0.37688   0.43348   0.70550   1.000
    C85     C    0.87686   0.43343   0.70550   1.000
    C86     C    0.34476   0.42141   0.85132   1.000
    H87     H    0.30221   0.43204   0.82293   1.000
    H88     H    0.80229   0.43176   0.82306   1.000
    H89     H    0.35219   0.35202   0.85662   1.000
    H90     H    0.85241   0.35192   0.85676   1.000
    H91     H    0.45580   0.36795   0.81869   1.000
    H92     H    0.95593   0.36810   0.81861   1.000
    H93     H    0.45343   0.46033   0.88571   1.000
    H94     H    0.95352   0.46047   0.88560   1.000
    H95     H    0.00995   0.37651   0.68623   1.000
    H96     H    0.50996   0.37623   0.68641   1.000
    H97     H    0.08153   0.45524   0.59955   1.000
    H98     H    0.58173   0.45478   0.59989   1.000
    H99     H    0.10499   0.61097   0.63687   1.000
    H100    H    0.60523   0.61049   0.63716   1.000
    H101    H    0.49807   0.60075   0.84306   1.000
    H102    H    0.99805   0.60097   0.84297   1.000
    H103    H    0.44457   0.74227   0.25688   1.000
    H104    H    0.94462   0.74219   0.25707   1.000
    H105    H    0.48074   0.45469   0.46669   1.000
    H106    H    0.98112   0.45183   0.46540   1.000
    H107    H    0.36556   0.47366   0.29815   1.000
    H108    H    0.86589   0.47336   0.29827   1.000
    H109    H    0.18549   0.32817   0.25461   1.000
    H110    H    0.68573   0.32821   0.25486   1.000
    H111    H    0.41392   0.53576   0.18821   1.000
    H112    H    0.91426   0.53583   0.18834   1.000
    H113    H    0.33952   0.53729   0.16643   1.000
    H114    H    0.83984   0.53702   0.16675   1.000
    N115    N    0.11065   0.95823   0.70633   1.000
    N116    N    0.61020   0.95807   0.70650   1.000
    N117    N    0.44786   0.10755   0.76016   1.000
    N118    N    0.94818   0.10743   0.76016   1.000
    N119    N    0.13973   0.04196   0.20654   1.000
    H120    H    0.44723   0.56869   0.32309   1.000
    H121    H    0.94773   0.56855   0.32304   1.000
    H122    H    0.39701   0.64872   0.35607   1.000
    H123    H    0.89748   0.64813   0.35686   1.000
    H124    H    0.29359   0.63210   0.31824   1.000
    H125    H    0.79411   0.63188   0.31880   1.000
    H126    H    0.29590   0.53973   0.38531   1.000
    H127    H    0.79647   0.53936   0.38574   1.000
    H128    H    0.23974   0.62375   0.18580   1.000
    H129    H    0.74021   0.62378   0.18639   1.000
    H130    H    0.16814   0.54513   0.09924   1.000
    H131    H    0.66857   0.54533   0.09970   1.000
    H132    H    0.14461   0.38944   0.13662   1.000
    H133    H    0.64498   0.38961   0.13689   1.000
    H134    H    0.25166   0.39916   0.34251   1.000
    H135    H    0.75193   0.39901   0.34289   1.000
    C136    C    0.12330   0.93350   0.79446   1.000
    C137    C    0.62298   0.93341   0.79469   1.000
    C138    C    0.15484   0.92102   0.64849   1.000
    C139    C    0.65434   0.92082   0.64874   1.000
    C140    C    0.04888   0.93814   0.67876   1.000
    C141    C    0.54844   0.93792   0.67911   1.000
    C142    C    0.00432   0.98306   0.73130   1.000
    C143    C    0.50393   0.98306   0.73153   1.000
    C144    C    0.47841   0.94316   0.80008   1.000
    C145    C    0.97880   0.94296   0.79970   1.000
    C146    C    0.43834   0.98726   0.84868   1.000
    C147    C    0.93870   0.98692   0.84840   1.000
    C148    C    0.42419   0.07106   0.82795   1.000
    C149    C    0.92450   0.07075   0.82786   1.000
    C150    C    0.48644   0.06631   0.71188   1.000
    C151    C    0.98679   0.06634   0.71183   1.000
    C152    C    0.12696   0.06657   0.29465   1.000
    C153    C    0.62696   0.06657   0.29473   1.000
    C154    C    0.09548   0.07895   0.14875   1.000
    C155    C    0.59546   0.07883   0.14881   1.000
    C156    C    0.20147   0.06234   0.17890   1.000
    C157    C    0.70146   0.06221   0.17903   1.000
    C158    C    0.24604   0.01729   0.23131   1.000
    C159    C    0.74601   0.01710   0.23138   1.000
    C160    C    0.27162   0.05724   0.29972   1.000
    C161    C    0.77160   0.05699   0.29982   1.000
    C162    C    0.31177   0.01318   0.34820   1.000
    C163    C    0.81169   0.01285   0.34834   1.000
    C164    C    0.32596   0.92941   0.32748   1.000
    C165    C    0.82582   0.92905   0.32763   1.000
    C166    C    0.26353   0.93405   0.21169   1.000
    C167    C    0.76349   0.93385   0.21173   1.000
    C168    C    0.84487   0.42128   0.85143   1.000
    C169    C    0.45092   0.43794   0.82170   1.000
    C170    C    0.95099   0.43808   0.82164   1.000
    C171    C    0.49574   0.48273   0.76936   1.000
    C172    C    0.99573   0.48297   0.76922   1.000
    C173    C    0.02136   0.44274   0.70100   1.000
    C174    C    0.52143   0.44244   0.70122   1.000
    C175    C    0.06155   0.48668   0.65233   1.000
    C176    C    0.56171   0.48628   0.65260   1.000
    C177    C    0.07574   0.57060   0.67264   1.000
    C178    C    0.57594   0.57019   0.67292   1.000
    C179    C    0.01326   0.56634   0.78849   1.000
    C180    C    0.51333   0.56608   0.78862   1.000
    C181    C    0.37290   0.56668   0.20538   1.000
    C182    C    0.87321   0.56656   0.20562   1.000
    C183    C    0.40457   0.57934   0.35119   1.000
    C184    C    0.90514   0.57881   0.35140   1.000
    C185    C    0.29856   0.56212   0.32129   1.000
    C186    C    0.79905   0.56189   0.32176   1.000
    C187    C    0.25392   0.51724   0.26882   1.000
    C188    C    0.75432   0.51715   0.26929   1.000
    C189    C    0.22830   0.55752   0.20060   1.000
    C190    C    0.72873   0.55754   0.20114   1.000
    C191    C    0.18809   0.51366   0.15201   1.000
    C192    C    0.68850   0.51379   0.15245   1.000
    C193    C    0.17387   0.42974   0.17236   1.000
    C194    C    0.67424   0.42985   0.17269   1.000
    C195    C    0.23639   0.43385   0.28807   1.000
    C196    C    0.73672   0.43377   0.28847   1.000
    N197    N    0.63972   0.04189   0.20663   1.000
    N198    N    0.30218   0.89285   0.25985   1.000
    N199    N    0.80209   0.89258   0.25993   1.000
    N200    N    0.38932   0.45823   0.79369   1.000
    N201    N    0.88934   0.45822   0.79373   1.000
    N202    N    0.05197   0.60741   0.74013   1.000
    N203    N    0.55212   0.60706   0.74033   1.000
    N204    N    0.36027   0.54205   0.29356   1.000
    N205    N    0.86072   0.54180   0.29383   1.000
    N206    N    0.19766   0.39285   0.23979   1.000
    N207    N    0.69797   0.39288   0.24010   1.000
    O208    O    0.08241   0.76993   0.77076   1.000
    O209    O    0.58241   0.76976   0.77083   1.000
    O210    O    0.12511   0.81854   0.91280   1.000
    O211    O    0.62509   0.81846   0.91299   1.000
    O212    O    0.19247   0.78904   0.79511   1.000
    O213    O    0.69244   0.78914   0.79519   1.000
    O214    O    0.11992   0.04896   0.54125   1.000
    O215    O    0.61951   0.04861   0.54124   1.000
    O216    O    0.13433   0.89499   0.48870   1.000
    O217    O    0.63239   0.89392   0.48949   1.000
    O218    O    0.22198   0.98482   0.52460   1.000
    O219    O    0.72094   0.98275   0.52398   1.000
    O220    O    0.16759   0.23021   0.27073   1.000
    O221    O    0.66762   0.23021   0.27074   1.000
    O222    O    0.12489   0.18146   0.41293   1.000
    O223    O    0.62494   0.18155   0.41297   1.000
    O224    O    0.05754   0.21088   0.29519   1.000
    O225    O    0.55758   0.21089   0.29521   1.000
    O226    O    0.13055   0.95144   0.04109   1.000
    O227    O    0.63058   0.95129   0.04122   1.000
    O228    O    0.11757   0.10622   0.98952   1.000
    O229    O    0.61753   0.10599   0.98950   1.000
    O230    O    0.02908   0.01710   0.02392   1.000
    O231    O    0.52908   0.01676   0.02398   1.000
    O232    O    0.41757   0.26994   0.72922   1.000
    O233    O    0.91760   0.26989   0.72926   1.000
    O234    O    0.37494   0.31858   0.58700   1.000
    O235    O    0.87492   0.31859   0.58718   1.000
    O236    O    0.30752   0.28900   0.70486   1.000
    O237    O    0.80753   0.28894   0.70490   1.000
    O238    O    0.38006   0.54902   0.95873   1.000
    O239    O    0.88011   0.54898   0.95883   1.000
    O240    O    0.36555   0.39491   0.01100   1.000
    O241    O    0.86557   0.39488   0.01116   1.000
    O242    O    0.27792   0.48474   0.97540   1.000
    O243    O    0.77796   0.48470   0.97540   1.000
    O244    O    0.33243   0.73027   0.22917   1.000
    O245    O    0.83244   0.73009   0.22925   1.000
    O246    O    0.37506   0.68154   0.08700   1.000
    O247    O    0.87510   0.68145   0.08713   1.000
    O248    O    0.44246   0.71096   0.20474   1.000
    O249    O    0.94250   0.71104   0.20484   1.000
    O250    O    0.36980   0.45150   0.45879   1.000
    O251    O    0.86999   0.45095   0.45885   1.000
    O252    O    0.38247   0.60624   0.51042   1.000
    O253    O    0.88455   0.60495   0.51126   1.000
    O254    O    0.47118   0.51792   0.47598   1.000
    O255    O    0.97213   0.51521   0.47534   1.000
loop_
    _geom_bond_atom_site_label_1
    _geom_bond_atom_site_label_2
    _geom_bond_distance
    _geom_bond_site_symmetry_2
    _ccdc_geom_bond_type
    O240   P10       1.51690  1_554   S
    O241   P11       1.51728  1_554   S
    O230   H46       1.02048  1_545   S
    O230   P6        1.58800      .   S
    O231   H47       1.02071  1_545   S
    O231   P7        1.58802      .   S
    O226   P6        1.50386  1_565   S
    O227   P7        1.50386  1_565   S
    P6     C154      1.85485      .   S
    P6     O228      1.51738  1_554   S
    P7     C155      1.85459      .   S
    P7     O229      1.51804  1_554   S
    O246   P12       1.50550      .   S
    O247   P13       1.50585      .   S
    H130   C191      1.08832      .   S
    H131   C192      1.08833      .   S
    H62    C156      1.09583      .   S
    H63    C157      1.09675      .   S
    H132   C193      1.08796      .   S
    H133   C194      1.08787      .   S
    H58    C154      1.09682      .   S
    H59    C155      1.09684      .   S
    C154   H56       1.09637      .   S
    C154   N119      1.50066      .   S
    C155   H57       1.09632      .   S
    C155   N197      1.50073      .   S
    C191   C193      1.38580      .   S
    C191   C189      1.39477      .   S
    C192   C194      1.38580      .   S
    C192   C190      1.39514      .   S
    H71    C167      1.09324      .   S
    H70    C166      1.09328      .   S
    H113   C181      1.09540      .   S
    H114   C182      1.09538      .   S
    C193   N206      1.35171      .   S
    C194   N207      1.35142      .   S
    C156   H60       1.09638      .   S
    C156   N119      1.52444      .   S
    C156   C158      1.50713      .   S
    C157   H61       1.09637      .   S
    C157   N197      1.52425      .   S
    C157   C159      1.50676      .   S
    P12    O248      1.62095      .   S
    P12    C181      1.84322      .   S
    P12    O244      1.50864      .   S
    P13    O249      1.62078      .   S
    P13    C182      1.84352      .   S
    P13    O245      1.50854      .   S
    H128   C189      1.09014      .   S
    H129   C190      1.09029      .   S
    H111   C181      1.09707      .   S
    H112   C182      1.09708      .   S
    C189   C187      1.40236      .   S
    C190   C188      1.40206      .   S
    H48    N119      1.07445  1_565   S
    H49    N197      1.07454  1_565   S
    O248   H103      0.97734      .   S
    O249   H104      0.97738      .   S
    C181   N204      1.50864      .   S
    C182   N205      1.50901      .   S
    N119   C152      1.50861      .   S
    N197   C153      1.50869      .   S
    C166   C158      1.39411  1_565   S
    C166   N198      1.34781      .   S
    C167   C159      1.39422  1_565   S
    C167   N199      1.34792      .   S
    C158   C160      1.40192      .   S
    C159   C161      1.40187      .   S
    N206   H109      1.07174      .   S
    N206   C195      1.34778      .   S
    N207   H110      1.07176      .   S
    N207   C196      1.34820      .   S
    H44    O224      0.97734      .   S
    H45    O225      0.97740      .   S
    H50    N198      1.07152      .   S
    H51    N199      1.07179      .   S
    N198   C164      1.35173      .   S
    N199   C165      1.35175      .   S
    C187   C195      1.39389      .   S
    C187   C185      1.50667      .   S
    C188   C196      1.39397      .   S
    C188   C186      1.50698      .   S
    O220   P4        1.50862      .   S
    O221   P5        1.50861      .   S
    C195   H134      1.09335      .   S
    C196   H135      1.09315      .   S
    N204   H107      1.07406      .   S
    N204   C185      1.52418      .   S
    N204   C183      1.50078      .   S
    N205   H108      1.07428      .   S
    N205   C186      1.52429      .   S
    N205   C184      1.50052      .   S
    C152   H52       1.09709      .   S
    C152   P4        1.84345      .   S
    C152   H54       1.09536      .   S
    C153   H53       1.09713      .   S
    C153   P5        1.84364      .   S
    C153   H55       1.09544      .   S
    O224   P4        1.62083      .   S
    O225   P5        1.62078      .   S
    C160   H64       1.09023      .   S
    C160   C162      1.39511      .   S
    C161   H65       1.09027      .   S
    C161   C163      1.39529      .   S
    H124   C185      1.09634      .   S
    H125   C186      1.09637      .   S
    P4     O222      1.50549      .   S
    P5     O223      1.50567      .   S
    C185   H126      1.09676      .   S
    C186   H127      1.09676      .   S
    H121   C184      1.09581      .   S
    H120   C183      1.09634      .   S
    C164   C162      1.38596  1_565   S
    C164   H68       1.08788      .   S
    C165   C163      1.38597  1_565   S
    C165   H69       1.08800      .   S
    C162   H66       1.08840      .   S
    C163   H67       1.08838      .   S
    C183   H122      1.09683      .   S
    C183   P14       1.85411      .   S
    C184   H123      1.09700      .   S
    C184   P15       1.85677      .   S
    P14    O250      1.50366      .   S
    P14    O254      1.58840      .   S
    P14    O252      1.51731      .   S
    P15    O251      1.50392      .   S
    P15    O255      1.58804      .   S
    P15    O253      1.51683      .   S
    H106   O255      1.02096      .   S
    H105   O254      1.01992      .   S
    O216   P2        1.51687      .   S
    O217   P3        1.51733      .   S
    O219   H19       1.02053  1_565   S
    O219   P3        1.58810      .   S
    O218   H18       1.02162  1_565   S
    O218   P2        1.58822      .   S
    O215   P3        1.50389  1_545   S
    O214   P2        1.50422  1_545   S
    P2     C138      1.85556      .   S
    P3     C139      1.85422      .   S
    O234   P8        1.50711      .   S
    O235   P9        1.50563      .   S
    H97    C175      1.08840      .   S
    H98    C176      1.08832      .   S
    H34    C140      1.09670      .   S
    H35    C141      1.09673      .   S
    H99    C177      1.08806      .   S
    H100   C178      1.08795      .   S
    H30    C138      1.09692      .   S
    H31    C139      1.09685      .   S
    C138   H28       1.09631      .   S
    C138   N115      1.50115      .   S
    C139   H29       1.09628      .   S
    C139   N116      1.49970      .   S
    C175   C177      1.38580      .   S
    C175   C173      1.39488      .   S
    C176   C178      1.38584      .   S
    C176   C174      1.39519      .   S
    H43    C150      1.09333      .   S
    H42    C151      1.09322  1_455   S
    H83    C85       1.09513      .   S
    H82    C84       1.09541      .   S
    C177   N202      1.35174      .   S
    C178   N203      1.35162      .   S
    C140   H32       1.09636      .   S
    C140   N115      1.52442      .   S
    C140   C142      1.50695      .   S
    C141   H33       1.09637      .   S
    C141   N116      1.52377      .   S
    C141   C143      1.50657      .   S
    P8     O236      1.62073      .   S
    P8     C84       1.84363      .   S
    P8     O232      1.50869      .   S
    P9     O237      1.62056      .   S
    P9     C85       1.84334      .   S
    P9     O233      1.50851      .   S
    H95    C173      1.09018      .   S
    H96    C174      1.09028      .   S
    H80    C84       1.09711      .   S
    H81    C85       1.09678      .   S
    C173   C172      1.40222  1_455   S
    C174   C171      1.40206      .   S
    H20    N115      1.07468  1_545   S
    H21    N116      1.07451  1_545   S
    O236   H72       0.97733      .   S
    O237   H73       0.97698      .   S
    C84    N200      1.50894      .   S
    C85    N201      1.50991      .   S
    N115   C136      1.50878      .   S
    N116   C137      1.50999      .   S
    C151   C142      1.39408  1_645   S
    C151   N118      1.34784      .   S
    C150   C143      1.39421  1_545   S
    C150   N117      1.34788      .   S
    C142   C145      1.40153  1_455   S
    C143   C144      1.40197      .   S
    N202   H78       1.07192      .   S
    N202   C179      1.34797      .   S
    N203   H79       1.07169      .   S
    N203   C180      1.34795      .   S
    H16    O212      0.97740      .   S
    H17    O213      0.97745      .   S
    H22    N117      1.07193      .   S
    H23    N118      1.07162      .   S
    N117   C148      1.35170      .   S
    N118   C149      1.35176      .   S
    C172   C179      1.39392  1_655   S
    C172   C170      1.50695      .   S
    C171   C180      1.39393      .   S
    C171   C169      1.50681      .   S
    O208   P0        1.50859      .   S
    O209   P1        1.50864      .   S
    C179   H102      1.09305  1_455   S
    C180   H101      1.09322      .   S
    N200   H76       1.07441      .   S
    N200   C169      1.52433      .   S
    N200   C86       1.50116      .   S
    N201   H77       1.07413      .   S
    N201   C170      1.52434      .   S
    N201   C168      1.50128      .   S
    C136   H24       1.09716      .   S
    C136   P0        1.84369      .   S
    C136   H26       1.09548      .   S
    C137   H25       1.09709      .   S
    C137   P1        1.84352      .   S
    C137   H27       1.09539      .   S
    O212   P0        1.62069      .   S
    O213   P1        1.62080      .   S
    C145   H37       1.09034      .   S
    C145   C147      1.39541      .   S
    C144   H36       1.09023      .   S
    C144   C146      1.39514      .   S
    H92    C170      1.09637      .   S
    H91    C169      1.09633      .   S
    P0     O210      1.50451      .   S
    P1     O211      1.50562      .   S
    C170   H94       1.09597      .   S
    C169   H93       1.09672      .   S
    H87    C86       1.09635      .   S
    H88    C168      1.09637      .   S
    C149   C147      1.38601  1_545   S
    C149   H41       1.08802      .   S
    C148   C146      1.38602  1_545   S
    C148   H40       1.08802      .   S
    C147   H39       1.08833      .   S
    C146   H38       1.08832      .   S
    C86    H89       1.09689      .   S
    C86    P10       1.85549      .   S
    C168   H90       1.09687      .   S
    C168   P11       1.85557      .   S
    P10    O238      1.50406      .   S
    P10    O242      1.58780      .   S
    P11    O239      1.50401      .   S
    P11    O243      1.58783      .   S
    H74    O242      1.02120      .   S
    H75    O243      1.02117      .   S
