# CIF file generated by openbabel 2.4.90, see http://openbabel.sf.net
data_I
_chemical_name_common ''
_cell_length_a 15.23
_cell_length_b 17.848
_cell_length_c 17.848
_cell_angle_alpha 90
_cell_angle_beta 90
_cell_angle_gamma 89.999
_space_group_name_H-M_alt 'P 1'
_space_group_name_Hall 'P 1'
loop_
    _symmetry_equiv_pos_as_xyz
    x,y,z
loop_
    _atom_site_label
    _atom_site_type_symbol
    _atom_site_fract_x
    _atom_site_fract_y
    _atom_site_fract_z
    _atom_site_occupancy
    Lv0     Lv   0.87410   0.75000   0.24999   1.000
    Lv1     Lv   0.62592   0.25000   0.74999   1.000
    Lv2     Lv   0.62592   0.75000   0.24999   1.000
    Lv3     Lv   0.37409   0.25000   0.74977   1.000
    Lv4     Lv   0.87410   0.25000   0.74999   1.000
    Lv5     Lv   0.12591   0.25000   0.74999   1.000
    Lv6     Lv   0.87782   0.25000   0.24999   1.000
    Lv7     Lv   0.37409   0.75000   0.25000   1.000
    Lv8     Lv   0.12219   0.75000   0.75000   1.000
    Lv9     Lv   0.37781   0.25000   0.25000   1.000
    Lv10    Lv   0.12591   0.75000   0.24999   1.000
    Lv11    Lv   0.62220   0.75000   0.75000   1.000
