# CIF file generated by openbabel 2.4.90, see http://openbabel.sf.net
data_I
_chemical_name_common ''
_cell_length_a 9.796
_cell_length_b 11.607
_cell_length_c 13.79
_cell_angle_alpha 65.865
_cell_angle_beta 88.867
_cell_angle_gamma 81.927
_space_group_name_H-M_alt 'P 1'
_space_group_name_Hall 'P 1'
loop_
    _symmetry_equiv_pos_as_xyz
    x,y,z
loop_
    _atom_site_label
    _atom_site_type_symbol
    _atom_site_fract_x
    _atom_site_fract_y
    _atom_site_fract_z
    _atom_site_occupancy
    C0      C    0.42088   0.66685   0.78291   1.000
    C1      C    0.41672   0.95095   0.21225   1.000
    C2      C    0.88371   0.73921   0.50272   1.000
    C3      C    0.57899   0.33321   0.21709   1.000
    C4      C    0.58320   0.04902   0.78775   1.000
    C5      C    0.11618   0.26084   0.49723   1.000
    N6      N    0.50031   0.75478   0.72288   1.000
    N7      N    0.43199   0.81651   0.63024   1.000
    N8      N    0.31416   0.76796   0.63292   1.000
    N9      N    0.30443   0.67294   0.72843   1.000
    N10     N    0.29532   0.91588   0.25467   1.000
    N11     N    0.30594   0.91008   0.35329   1.000
    N12     N    0.42930   0.93984   0.36951   1.000
    N13     N    0.50010   0.96552   0.28251   1.000
    N14     N    0.74648   0.77265   0.50271   1.000
    N15     N    0.73013   0.88762   0.50435   1.000
    N16     N    0.85104   0.92611   0.50489   1.000
    N17     N    0.95085   0.83336   0.50376   1.000
    N18     N    0.49957   0.24528   0.27712   1.000
    N19     N    0.56789   0.18355   0.36976   1.000
    N20     N    0.68571   0.23211   0.36708   1.000
    N21     N    0.69543   0.32713   0.27158   1.000
    N22     N    0.70459   0.08413   0.74532   1.000
    N23     N    0.69396   0.08993   0.64670   1.000
    N24     N    0.57061   0.06016   0.63048   1.000
    N25     N    0.49981   0.03447   0.71749   1.000
    N26     N    0.25341   0.22740   0.49724   1.000
    N27     N    0.26976   0.11242   0.49562   1.000
    N28     N    0.14885   0.07392   0.49508   1.000
    N29     N    0.04904   0.16668   0.49620   1.000
loop_
    _geom_bond_atom_site_label_1
    _geom_bond_atom_site_label_2
    _geom_bond_distance
    _geom_bond_site_symmetry_2
    _ccdc_geom_bond_type
    C1     N10       1.35502      .   S
    C1     N13       1.35593      .   S
    C3     N21       1.35589      .   S
    C3     N18       1.35606      .   S
    N10    N11       1.33929      .   S
    N21    N20       1.34044      .   S
    N18    N19       1.32056      .   S
    N13    N12       1.31986      .   S
    N11    N12       1.34940      .   S
    N20    N19       1.34727      .   S
    N28    N27       1.32455      .   S
    N28    N29       1.35379      .   S
    N27    N26       1.33091      .   S
    N29    C5        1.35716      .   S
    C5     N26       1.34578      .   S
    N14    C2        1.34579      .   S
    N14    N15       1.33091      .   S
    C2     N17       1.35716      .   S
    N17    N16       1.35378      .   S
    N15    N16       1.32454      .   S
    N7     N8        1.34726      .   S
    N7     N6        1.32055      .   S
    N24    N23       1.34941      .   S
    N24    N25       1.31986      .   S
    N8     N9        1.34044      .   S
    N23    N22       1.33929      .   S
    N25    C4        1.35589      .   S
    N6     C0        1.35607      .   S
    N9     C0        1.35589      .   S
    N22    C4        1.35502      .   S
