# CIF file generated by openbabel 2.4.90, see http://openbabel.sf.net
data_I
_chemical_name_common ''
_cell_length_a 14.273
_cell_length_b 15.94
_cell_length_c 19.73
_cell_angle_alpha 110.743
_cell_angle_beta 89.833
_cell_angle_gamma 116.784
_space_group_name_H-M_alt 'P 1'
_space_group_name_Hall 'P 1'
loop_
    _symmetry_equiv_pos_as_xyz
    x,y,z
loop_
    _atom_site_label
    _atom_site_type_symbol
    _atom_site_fract_x
    _atom_site_fract_y
    _atom_site_fract_z
    _atom_site_occupancy
    Lv0     Lv   0.64717   0.95653   0.53270   1.000
    Lv1     Lv   0.30950   0.95673   0.03261   1.000
    Lv2     Lv   0.35282   0.04348   0.46713   1.000
    Lv3     Lv   0.65607   0.29306   0.29110   1.000
    Lv4     Lv   0.79230   0.70114   0.38721   1.000
    Lv5     Lv   0.69052   0.04329   0.96716   1.000
    Lv6     Lv   0.20772   0.29886   0.61261   1.000
    Lv7     Lv   0.34395   0.70693   0.70869   1.000
    Lv8     Lv   0.08975   0.29867   0.11267   1.000
    Lv9     Lv   0.36407   0.70649   0.20820   1.000
    Lv10    Lv   0.63595   0.29352   0.79162   1.000
    Lv11    Lv   0.90857   0.70135   0.88716   1.000
