# CIF file generated by openbabel 2.4.90, see http://openbabel.sf.net
data_I
_chemical_name_common ''
_cell_length_a 14.678
_cell_length_b 21.376
_cell_length_c 21.376
_cell_angle_alpha 83.236
_cell_angle_beta 69.927
_cell_angle_gamma 69.929
_space_group_name_H-M_alt 'P 1'
_space_group_name_Hall 'P 1'
loop_
    _symmetry_equiv_pos_as_xyz
    x,y,z
loop_
    _atom_site_label
    _atom_site_type_symbol
    _atom_site_fract_x
    _atom_site_fract_y
    _atom_site_fract_z
    _atom_site_occupancy
    Lv0     Lv   0.04963   0.88786   0.13778   1.000
    Lv1     Lv   0.06233   0.86255   0.38775   1.000
    Lv2     Lv   0.04972   0.88764   0.63787   1.000
    Lv3     Lv   0.56269   0.36213   0.88755   1.000
    Lv4     Lv   0.56263   0.36200   0.38765   1.000
    Lv5     Lv   0.04995   0.38768   0.13767   1.000
    Lv6     Lv   0.81254   0.13757   0.61229   1.000
    Lv7     Lv   0.07520   0.11236   0.36212   1.000
    Lv8     Lv   0.81271   0.13769   0.11199   1.000
    Lv9     Lv   0.31260   0.63770   0.11216   1.000
    Lv10    Lv   0.31272   0.13768   0.11196   1.000
    Lv11    Lv   0.07528   0.11195   0.86245   1.000
    Lv12    Lv   0.54995   0.38767   0.13767   1.000
    Lv13    Lv   0.81259   0.63770   0.11216   1.000
    Lv14    Lv   0.57519   0.11236   0.36212   1.000
    Lv15    Lv   0.57528   0.11195   0.86245   1.000
    Lv16    Lv   0.04971   0.38774   0.63797   1.000
    Lv17    Lv   0.54970   0.38774   0.63797   1.000
    Lv18    Lv   0.31218   0.63810   0.61234   1.000
    Lv19    Lv   0.06264   0.36201   0.38771   1.000
    Lv20    Lv   0.54963   0.88786   0.13779   1.000
    Lv21    Lv   0.07517   0.61224   0.86249   1.000
    Lv22    Lv   0.81217   0.63810   0.61233   1.000
    Lv23    Lv   0.07538   0.61236   0.36194   1.000
    Lv24    Lv   0.31255   0.13757   0.61228   1.000
    Lv25    Lv   0.57517   0.61224   0.86248   1.000
    Lv26    Lv   0.54972   0.88765   0.63788   1.000
    Lv27    Lv   0.56232   0.86255   0.38775   1.000
    Lv28    Lv   0.57537   0.61236   0.36194   1.000
    Lv29    Lv   0.56252   0.86232   0.88799   1.000
    Lv30    Lv   0.06253   0.86232   0.88799   1.000
    Lv31    Lv   0.06269   0.36213   0.88740   1.000
