# CIF file generated by openbabel 2.4.90, see http://openbabel.sf.net
data_I
_chemical_name_common ''
_cell_length_a 23.416
_cell_length_b 15.734
_cell_length_c 18.046
_cell_angle_alpha 88.64
_cell_angle_beta 89.846
_cell_angle_gamma 90.01
_space_group_name_H-M_alt 'P 1'
_space_group_name_Hall 'P 1'
loop_
    _symmetry_equiv_pos_as_xyz
    x,y,z
loop_
    _atom_site_label
    _atom_site_type_symbol
    _atom_site_fract_x
    _atom_site_fract_y
    _atom_site_fract_z
    _atom_site_occupancy
    N0      N    0.87998   0.00489   0.85519   1.000
    N1      N    0.12945   0.49931   0.36002   1.000
    N2      N    0.37997   0.00451   0.85530   1.000
    N3      N    0.37986   0.50065   0.64049   1.000
    N4      N    0.87986   0.50095   0.64034   1.000
    N5      N    0.12917   0.99474   0.14516   1.000
    N6      N    0.62924   0.99475   0.14546   1.000
    N7      N    0.62949   0.49934   0.36085   1.000
    Zr8     Zr   0.62992   0.50497   0.86105   1.000
    O9      O    0.56121   0.36606   0.87639   1.000
    O10     O    0.55841   0.63920   0.87704   1.000
    O11     O    0.62977   0.50255   0.01962   1.000
    O12     O    0.70145   0.36950   0.87710   1.000
    O13     O    0.69869   0.64266   0.87609   1.000
    O14     O    0.56117   0.64334   0.84266   1.000
    O15     O    0.55866   0.37034   0.84198   1.000
    O16     O    0.62973   0.50406   0.70229   1.000
    O17     O    0.70127   0.64031   0.84166   1.000
    O18     O    0.69877   0.36747   0.84268   1.000
    Zr19    Zr   0.12993   0.50473   0.86034   1.000
    O20     O    0.19877   0.36722   0.84218   1.000
    O21     O    0.20127   0.64007   0.84114   1.000
    O22     O    0.12971   0.50393   0.70153   1.000
    O23     O    0.05866   0.37035   0.84141   1.000
    O24     O    0.06117   0.64332   0.84209   1.000
    O25     O    0.20144   0.36915   0.87667   1.000
    O26     O    0.05842   0.63912   0.87653   1.000
    O27     O    0.06121   0.36598   0.87587   1.000
    O28     O    0.19871   0.64229   0.87565   1.000
    O29     O    0.12977   0.50234   0.01894   1.000
    Zr30    Zr   0.87910   0.49467   0.14044   1.000
    O31     O    0.81062   0.63351   0.12490   1.000
    O32     O    0.95082   0.62996   0.12417   1.000
    O33     O    0.80774   0.36039   0.12422   1.000
    O34     O    0.87947   0.49731   0.98168   1.000
    O35     O    0.94782   0.35678   0.12493   1.000
    O36     O    0.94789   0.63215   0.15870   1.000
    O37     O    0.80767   0.62911   0.15936   1.000
    O38     O    0.81013   0.35628   0.15879   1.000
    O39     O    0.87914   0.49571   0.29916   1.000
    O40     O    0.95036   0.35940   0.15939   1.000
    Zr41    Zr   0.37915   0.49467   0.14050   1.000
    O42     O    0.31014   0.35629   0.15876   1.000
    O43     O    0.30768   0.62914   0.15933   1.000
    O44     O    0.45041   0.35940   0.15961   1.000
    O45     O    0.44793   0.63216   0.15883   1.000
    O46     O    0.37916   0.49565   0.29926   1.000
    O47     O    0.44799   0.35687   0.12510   1.000
    O48     O    0.37952   0.49719   0.98178   1.000
    O49     O    0.31064   0.63351   0.12487   1.000
    O50     O    0.30778   0.36037   0.12419   1.000
    O51     O    0.45087   0.62999   0.12430   1.000
loop_
    _geom_bond_atom_site_label_1
    _geom_bond_atom_site_label_2
    _geom_bond_distance
    _geom_bond_site_symmetry_2
    _ccdc_geom_bond_type
    Zr8    O9        2.72220      .   S
    N2     O9        7.11469      .   S
    Zr8    O10       2.71578      .   S
    N2     O10       7.11051  1_545   S
    Zr8    O11       2.86094  1_556   S
    N7     O11       6.15686      .   S
    Zr8    O12       2.72158      .   S
    N0     O12       7.11696      .   S
    Zr8    O13       2.71809      .   S
    N0     O13       7.10822  1_545   S
    Zr8    O14       2.72239      .   S
    N2     O14       7.10015  1_545   S
    Zr8    O15       2.72518      .   S
    N2     O15       7.11457      .   S
    Zr8    O16       2.86531      .   S
    N7     O16       6.16384      .   S
    Zr8    O17       2.72177      .   S
    N0     O17       7.10906  1_545   S
    Zr8    O18       2.72429      .   S
    N0     O18       7.11012      .   S
    Zr19   O20       2.72384      .   S
    N2     O20       7.11178      .   S
    Zr19   O21       2.72130      .   S
    N2     O21       7.10788  1_545   S
    Zr19   O22       2.86627      .   S
    N1     O22       6.16510      .   S
    Zr19   O23       2.72188      .   S
    N0     O23       7.10990  1_655   S
    Zr19   O24       2.72488      .   S
    N0     O24       7.10549  1_645   S
    Zr19   O25       2.72314      .   S
    N2     O25       7.11662      .   S
    Zr19   O26       2.71802      .   S
    N0     O26       7.11608  1_645   S
    Zr19   O27       2.72051      .   S
    N0     O27       7.10833  1_655   S
    Zr19   O28       2.71723      .   S
    N2     O28       7.10744  1_545   S
    Zr19   O29       2.86135  1_556   S
    N1     O29       6.15418      .   S
    Zr30   O31       2.71969      .   S
    N6     O31       7.11214      .   S
    Zr30   O32       2.72098      .   S
    N5     O32       7.11547  1_455   S
    Zr30   O33       2.71524      .   S
    N6     O33       7.11279  1_565   S
    Zr30   O34       2.86426  1_554   S
    N4     O34       6.15872      .   S
    Zr30   O35       2.72066      .   S
    N5     O35       7.10866  1_465   S
    Zr30   O36       2.72357      .   S
    N5     O36       7.10949  1_455   S
    Zr30   O37       2.72418      .   S
    N6     O37       7.11080      .   S
    Zr30   O38       2.72407      .   S
    N6     O38       7.10064  1_565   S
    Zr30   O39       2.86484      .   S
    N4     O39       6.15939      .   S
    Zr30   O40       2.72054      .   S
    N5     O40       7.11250  1_465   S
    Zr41   O42       2.72444      .   S
    N5     O42       7.10220  1_565   S
    Zr41   O43       2.72473      .   S
    N5     O43       7.11147      .   S
    Zr41   O44       2.72083      .   S
    N6     O44       7.11253  1_565   S
    Zr41   O45       2.72371      .   S
    N6     O45       7.10983      .   S
    Zr41   O46       2.86540      .   S
    N3     O46       6.16031      .   S
    Zr41   O47       2.72107      .   S
    N6     O47       7.10816  1_565   S
    Zr41   O48       2.86357  1_554   S
    N3     O48       6.15782      .   S
    Zr41   O49       2.72009      .   S
    N5     O49       7.11296      .   S
    Zr41   O50       2.71585      .   S
    N5     O50       7.11409  1_565   S
    Zr41   O51       2.72124      .   S
    N6     O51       7.11565      .   S
