# CIF file generated by openbabel 2.4.90, see http://openbabel.sf.net
data_I
_chemical_name_common ''
_cell_length_a 15.084
_cell_length_b 12.455
_cell_length_c 25.541
_cell_angle_alpha 70.801
_cell_angle_beta 81.473
_cell_angle_gamma 72.345
_space_group_name_H-M_alt 'P 1'
_space_group_name_Hall 'P 1'
loop_
    _symmetry_equiv_pos_as_xyz
    x,y,z
loop_
    _atom_site_label
    _atom_site_type_symbol
    _atom_site_fract_x
    _atom_site_fract_y
    _atom_site_fract_z
    _atom_site_occupancy
    Zr0     Zr   0.48669   0.89797   0.96433   1.000
    Zr1     Zr   0.98658   0.89807   0.96433   1.000
    Zr2     Zr   0.41831   0.60344   0.53361   1.000
    Zr3     Zr   0.91833   0.60346   0.53363   1.000
    Zr4     Zr   0.01383   0.10325   0.03351   1.000
    Zr5     Zr   0.51392   0.10316   0.03352   1.000
    Zr6     Zr   0.08202   0.39811   0.46425   1.000
    Zr7     Zr   0.58200   0.39807   0.46420   1.000
    Zr8     Zr   0.02136   0.99012   0.85092   1.000
    Zr9     Zr   0.52141   0.99002   0.85090   1.000
    Zr10    Zr   0.42828   0.36119   0.53683   1.000
    Zr11    Zr   0.92828   0.36123   0.53684   1.000
    Zr12    Zr   0.44180   0.51172   0.64713   1.000
    Zr13    Zr   0.94180   0.51177   0.64717   1.000
    Zr14    Zr   0.37732   0.14007   0.96110   1.000
    Zr15    Zr   0.87722   0.14017   0.96111   1.000
    Zr16    Zr   0.47908   0.01151   0.14696   1.000
    Zr17    Zr   0.97907   0.01152   0.14690   1.000
    Zr18    Zr   0.07206   0.64049   0.46100   1.000
    Zr19    Zr   0.57205   0.64046   0.46106   1.000
    Zr20    Zr   0.05840   0.48939   0.35080   1.000
    Zr21    Zr   0.55838   0.48935   0.35081   1.000
    Zr22    Zr   0.12296   0.86096   0.03684   1.000
    Zr23    Zr   0.62301   0.86085   0.03684   1.000
    Zr24    Zr   0.06320   0.94722   0.89787   1.000
    Zr25    Zr   0.56329   0.94700   0.89785   1.000
    Zr26    Zr   0.43870   0.99594   0.84652   1.000
    Zr27    Zr   0.93866   0.99600   0.84652   1.000
    Zr28    Zr   0.39608   0.47210   0.51322   1.000
    Zr29    Zr   0.89607   0.47214   0.51324   1.000
    Zr30    Zr   0.01176   0.30314   0.52689   1.000
    Zr31    Zr   0.51176   0.30309   0.52680   1.000
    Zr32    Zr   0.48554   0.55538   0.60022   1.000
    Zr33    Zr   0.98553   0.55538   0.60025   1.000
    Zr34    Zr   0.36016   0.50476   0.65143   1.000
    Zr35    Zr   0.86014   0.50485   0.65148   1.000
    Zr36    Zr   0.38843   0.02923   0.98473   1.000
    Zr37    Zr   0.88835   0.02932   0.98475   1.000
    Zr38    Zr   0.42700   0.19790   0.97099   1.000
    Zr39    Zr   0.92686   0.19804   0.97100   1.000
    Zr40    Zr   0.43701   0.05537   0.10006   1.000
    Zr41    Zr   0.93698   0.05539   0.10007   1.000
    Zr42    Zr   0.06202   0.00465   0.15128   1.000
    Zr43    Zr   0.56204   0.00464   0.15127   1.000
    Zr44    Zr   0.10419   0.52955   0.48466   1.000
    Zr45    Zr   0.60416   0.52952   0.48463   1.000
    Zr46    Zr   0.48866   0.69870   0.47112   1.000
    Zr47    Zr   0.98867   0.69872   0.47113   1.000
    Zr48    Zr   0.01463   0.44582   0.39774   1.000
    Zr49    Zr   0.51464   0.44568   0.39772   1.000
    Zr50    Zr   0.14015   0.49599   0.34651   1.000
    Zr51    Zr   0.64011   0.49600   0.34650   1.000
    Zr52    Zr   0.11177   0.97180   0.01318   1.000
    Zr53    Zr   0.61182   0.97169   0.01318   1.000
    Zr54    Zr   0.07338   0.80307   0.02690   1.000
    Zr55    Zr   0.57346   0.80294   0.02690   1.000
    O56     O    0.56287   0.03743   0.02335   1.000
    O57     O    0.61741   0.91627   0.02501   1.000
    O58     O    0.06280   0.03753   0.02334   1.000
    O59     O    0.11736   0.91638   0.02501   1.000
    O60     O    0.59823   0.83189   0.03187   1.000
    O61     O    0.53008   0.85045   0.99562   1.000
    O62     O    0.09817   0.83201   0.03187   1.000
    O63     O    0.02998   0.85057   0.99562   1.000
    O64     O    0.97541   0.07932   0.06679   1.000
    O65     O    0.97034   0.15064   0.00226   1.000
    O66     O    0.47546   0.07927   0.06679   1.000
    O67     O    0.47046   0.15053   0.00226   1.000
    O68     O    0.45804   0.03344   0.12351   1.000
    O69     O    0.95802   0.03345   0.12349   1.000
    O70     O    0.02054   0.00809   0.14909   1.000
    O71     O    0.52056   0.00807   0.14911   1.000
    O72     O    0.59924   0.49268   0.34866   1.000
    O73     O    0.09927   0.49269   0.34866   1.000
    O74     O    0.03651   0.46761   0.37427   1.000
    O75     O    0.53651   0.46752   0.37427   1.000
    O76     O    0.54832   0.42188   0.43096   1.000
    O77     O    0.04833   0.42197   0.43100   1.000
    O78     O    0.03036   0.66960   0.46607   1.000
    O79     O    0.08812   0.58502   0.47283   1.000
    O80     O    0.53035   0.66958   0.46609   1.000
    O81     O    0.58810   0.58499   0.47285   1.000
    O82     O    0.59308   0.46379   0.47442   1.000
    O83     O    0.54688   0.35058   0.49550   1.000
    O84     O    0.09310   0.46383   0.47446   1.000
    O85     O    0.04689   0.35063   0.49557   1.000
    O86     O    0.45349   0.65107   0.50237   1.000
    O87     O    0.95350   0.65109   0.50238   1.000
    O88     O    0.40720   0.53777   0.52342   1.000
    O89     O    0.41218   0.41665   0.52502   1.000
    O90     O    0.90720   0.53780   0.52344   1.000
    O91     O    0.91218   0.41668   0.52504   1.000
    O92     O    0.47002   0.33214   0.53182   1.000
    O93     O    0.97002   0.33218   0.53187   1.000
    O94     O    0.45193   0.57941   0.56692   1.000
    O95     O    0.95193   0.57942   0.56694   1.000
    O96     O    0.46367   0.53355   0.62368   1.000
    O97     O    0.96367   0.53357   0.62371   1.000
    O98     O    0.40098   0.50824   0.64928   1.000
    O99     O    0.90097   0.50831   0.64933   1.000
    O100    O    0.98001   0.99306   0.84872   1.000
    O101    O    0.48005   0.99298   0.84871   1.000
    O102    O    0.54235   0.96851   0.87438   1.000
    O103    O    0.04228   0.96867   0.87440   1.000
    O104    O    0.52499   0.92248   0.93109   1.000
    O105    O    0.02489   0.92265   0.93110   1.000
    O106    O    0.40216   0.16899   0.96604   1.000
    O107    O    0.38288   0.08465   0.97292   1.000
    O108    O    0.90204   0.16910   0.96606   1.000
    O109    O    0.88278   0.08474   0.97293   1.000
    O110    O    0.93746   0.96369   0.97454   1.000
    O111    O    0.43756   0.96360   0.97453   1.000
    N112    N    0.77742   0.84007   0.31099   1.000
    O113    O    0.69016   0.75635   0.37588   1.000
    O114    O    0.86317   0.91449   0.24141   1.000
    N115    N    0.64703   0.34040   0.81111   1.000
    O116    O    0.74373   0.25643   0.87597   1.000
    O117    O    0.55889   0.41481   0.74157   1.000
    N118    N    0.50020   0.00080   0.49903   1.000
    O119    O    0.32286   0.16882   0.48314   1.000
    O120    O    0.67752   0.83276   0.51487   1.000
    N121    N    0.00017   0.00072   0.49904   1.000
    O122    O    0.82283   0.16876   0.48313   1.000
    O123    O    0.17750   0.83271   0.51486   1.000
    N124    N    0.22296   0.16066   0.68692   1.000
    O125    O    0.31021   0.24483   0.62203   1.000
    O126    O    0.13722   0.08672   0.75648   1.000
    N127    N    0.25032   0.50050   0.99896   1.000
    O128    O    0.14915   0.33256   0.01475   1.000
    O129    O    0.35146   0.66851   0.98306   1.000
    N130    N    0.14707   0.34041   0.81114   1.000
    O131    O    0.24380   0.25641   0.87598   1.000
    O132    O    0.05891   0.41484   0.74160   1.000
    N133    N    0.75032   0.50051   0.99894   1.000
    O134    O    0.64919   0.33253   0.01474   1.000
    O135    O    0.85142   0.66856   0.98312   1.000
    N136    N    0.72299   0.16062   0.68692   1.000
    O137    O    0.81022   0.24482   0.62203   1.000
    O138    O    0.63726   0.08665   0.75647   1.000
    N139    N    0.27742   0.84007   0.31098   1.000
    O140    O    0.19016   0.75637   0.37586   1.000
    O141    O    0.36318   0.91449   0.24142   1.000
    N142    N    0.35308   0.66094   0.18686   1.000
    O143    O    0.44125   0.58646   0.25640   1.000
    O144    O    0.25641   0.74481   0.12199   1.000
    N145    N    0.85311   0.66090   0.18688   1.000
    O146    O    0.75644   0.74475   0.12201   1.000
    O147    O    0.94127   0.58646   0.25640   1.000
loop_
    _geom_bond_atom_site_label_1
    _geom_bond_atom_site_label_2
    _geom_bond_distance
    _geom_bond_site_symmetry_2
    _ccdc_geom_bond_type
    Zr53   O56       0.99964  1_565   S
    Zr5    O56       0.99964      .   S
    Zr53   O57       0.64028      .   S
    Zr23   O57       0.64028      .   S
    Zr52   O58       0.99964  1_565   S
    Zr4    O58       0.99964      .   S
    Zr52   O59       0.64030      .   S
    Zr22   O59       0.64030      .   S
    Zr55   O60       0.64168      .   S
    Zr23   O60       0.64168      .   S
    Zr55   O61       1.01297  1_554   S
    Zr0    O61       1.01297      .   S
    Zr54   O62       0.64171      .   S
    Zr22   O62       0.64171      .   S
    Zr54   O63       1.01306  1_554   S
    Zr1    O63       1.01306  1_655   S
    Zr4    O64       0.96920  1_455   S
    Zr41   O64       0.96920      .   S
    Zr4    O65       1.01316  1_455   S
    Zr39   O65       1.01316  1_556   S
    Zr5    O66       0.96920      .   S
    Zr40   O66       0.96920      .   S
    Zr5    O67       1.01305      .   S
    Zr38   O67       1.01305  1_556   S
    Zr40   O68       0.65592      .   S
    Zr16   O68       0.65592      .   S
    Zr41   O69       0.65518      .   S
    Zr17   O69       0.65518      .   S
    Zr17   O70       0.62363  1_655   S
    Zr42   O70       0.62363      .   S
    Zr16   O71       0.62347      .   S
    Zr43   O71       0.62347      .   S
    Zr51   O72       0.62344      .   S
    Zr21   O72       0.62344      .   S
    Zr50   O73       0.62346      .   S
    Zr20   O73       0.62346      .   S
    Zr20   O74       0.65619      .   S
    Zr48   O74       0.65619      .   S
    Zr21   O75       0.65600      .   S
    Zr49   O75       0.65600      .   S
    Zr49   O76       0.96841      .   S
    Zr7    O76       0.96841      .   S
    Zr48   O77       0.96876      .   S
    Zr6    O77       0.96876      .   S
    Zr18   O78       0.64197      .   S
    Zr47   O78       0.64197  1_655   S
    Zr18   O79       0.64042      .   S
    Zr44   O79       0.64042      .   S
    Zr19   O80       0.64176      .   S
    Zr46   O80       0.64176      .   S
    Zr19   O81       0.64025      .   S
    Zr45   O81       0.64025      .   S
    Zr7    O82       1.00125      .   S
    Zr45   O82       1.00125      .   S
    Zr7    O83       1.01149      .   S
    Zr31   O83       1.01149      .   S
    Zr6    O84       1.00109      .   S
    Zr44   O84       1.00109      .   S
    Zr6    O85       1.01178      .   S
    Zr30   O85       1.01178      .   S
    Zr46   O86       1.01206      .   S
    Zr2    O86       1.01206      .   S
    Zr47   O87       1.01210      .   S
    Zr3    O87       1.01210      .   S
    Zr28   O88       1.00053      .   S
    Zr2    O88       1.00053      .   S
    Zr28   O89       0.64029      .   S
    Zr10   O89       0.64029      .   S
    Zr29   O90       1.00053      .   S
    Zr3    O90       1.00053      .   S
    Zr29   O91       0.64028      .   S
    Zr11   O91       0.64028      .   S
    Zr31   O92       0.64196      .   S
    Zr10   O92       0.64196      .   S
    Zr30   O93       0.64170  1_455   S
    Zr11   O93       0.64170      .   S
    Zr2    O94       0.96882      .   S
    Zr32   O94       0.96882      .   S
    Zr3    O95       0.96885      .   S
    Zr33   O95       0.96885      .   S
    Zr32   O96       0.65594      .   S
    Zr12   O96       0.65594      .   S
    Zr33   O97       0.65595      .   S
    Zr13   O97       0.65595      .   S
    Zr12   O98       0.62342      .   S
    Zr34   O98       0.62342      .   S
    Zr13   O99       0.62342      .   S
    Zr35   O99       0.62342      .   S
    Zr27   O100      0.62343      .   S
    Zr8    O100      0.62343  1_455   S
    Zr26   O101      0.62342      .   S
    Zr9    O101      0.62342      .   S
    Zr9    O102      0.65591      .   S
    Zr25   O102      0.65591      .   S
    Zr8    O103      0.65579      .   S
    Zr24   O103      0.65579      .   S
    Zr25   O104      0.96892      .   S
    Zr0    O104      0.96892      .   S
    Zr24   O105      0.96899      .   S
    Zr1    O105      0.96899  1_655   S
    Zr14   O106      0.64173      .   S
    Zr38   O106      0.64173      .   S
    Zr14   O107      0.64030      .   S
    Zr36   O107      0.64030      .   S
    Zr15   O108      0.64169      .   S
    Zr39   O108      0.64169      .   S
    Zr15   O109      0.64030      .   S
    Zr37   O109      0.64030      .   S
    Zr1    O110      1.00031      .   S
    Zr37   O110      1.00031  1_545   S
    Zr0    O111      1.00033      .   S
    Zr36   O111      1.00033  1_545   S
    N112   O113      2.14837      .   S
    Zr19   O113      2.88716      .   S
    N112   O114      2.15708      .   S
    Zr17   O114      2.90770  1_545   S
    N115   O116      2.14873      .   S
    Zr15   O116      2.88776      .   S
    N115   O117      2.15679      .   S
    Zr12   O117      2.90678      .   S
    N118   O119      2.84038      .   S
    Zr6    O119      3.86083      .   S
    N118   O120      2.84014  1_545   S
    Zr3    O120      3.86049      .   S
    N121   O122      2.84043  1_455   S
    Zr7    O122      3.86089      .   S
    N121   O123      2.84013  1_545   S
    Zr2    O123      3.86044      .   S
    N124   O125      2.15058      .   S
    Zr10   O125      2.88957      .   S
    N124   O126      2.15456      .   S
    Zr8    O126      2.90462  1_565   S
    N127   O128      2.83998  1_556   S
    Zr4    O128      3.85988      .   S
    N127   O129      2.83992      .   S
    Zr0    O129      3.86062      .   S
    N130   O131      2.14873      .   S
    Zr14   O131      2.88772      .   S
    N130   O132      2.15688      .   S
    Zr13   O132      2.90689  1_655   S
    N133   O134      2.83993  1_556   S
    Zr5    O134      3.85983      .   S
    N133   O135      2.84024      .   S
    Zr1    O135      3.86015      .   S
    N136   O137      2.15064      .   S
    Zr11   O137      2.88963      .   S
    N136   O138      2.15446      .   S
    Zr9    O138      2.90441  1_565   S
    N139   O140      2.14817      .   S
    Zr18   O140      2.88654      .   S
    N139   O141      2.15683      .   S
    Zr16   O141      2.90691  1_545   S
    N142   O143      2.15677      .   S
    Zr21   O143      2.90665      .   S
    N142   O144      2.14874      .   S
    Zr22   O144      2.88744      .   S
    N145   O146      2.14855      .   S
    Zr23   O146      2.88759      .   S
    N145   O147      2.15660      .   S
    Zr20   O147      2.90629  1_455   S
