# CIF file generated by openbabel 2.4.90, see http://openbabel.sf.net
data_I
_chemical_name_common ''
_cell_length_a 13.694
_cell_length_b 14.215
_cell_length_c 15.969
_cell_angle_alpha 90.002
_cell_angle_beta 89.985
_cell_angle_gamma 89.953
_space_group_name_H-M_alt 'P 1'
_space_group_name_Hall 'P 1'
loop_
    _symmetry_equiv_pos_as_xyz
    x,y,z
loop_
    _atom_site_label
    _atom_site_type_symbol
    _atom_site_fract_x
    _atom_site_fract_y
    _atom_site_fract_z
    _atom_site_occupancy
    H0      H    0.47557   0.92723   0.18984   1.000
    H1      H    0.97557   0.92729   0.18980   1.000
    H2      H    0.28603   0.96949   0.18064   1.000
    H3      H    0.78601   0.96958   0.18056   1.000
    H4      H    0.46322   0.04314   0.30811   1.000
    H5      H    0.96322   0.04321   0.30807   1.000
    H6      H    0.27369   0.08539   0.29893   1.000
    H7      H    0.77367   0.08548   0.29885   1.000
    H8      H    0.27392   0.07237   0.69136   1.000
    H9      H    0.77395   0.07230   0.69129   1.000
    H10     H    0.46377   0.02858   0.68076   1.000
    H11     H    0.96377   0.02851   0.68071   1.000
    H12     H    0.28647   0.95484   0.80833   1.000
    H13     H    0.78650   0.95477   0.80820   1.000
    H14     H    0.47631   0.91107   0.79776   1.000
    H15     H    0.97631   0.91100   0.79771   1.000
    H16     H    0.02397   0.42646   0.31017   1.000
    H17     H    0.52396   0.42637   0.31010   1.000
    H18     H    0.21341   0.46865   0.31875   1.000
    H19     H    0.71343   0.46876   0.31886   1.000
    H20     H    0.03673   0.54385   0.19313   1.000
    H21     H    0.53673   0.54378   0.19306   1.000
    H22     H    0.22617   0.58605   0.20171   1.000
    H23     H    0.72618   0.58617   0.20182   1.000
    H24     H    0.22588   0.57200   0.81006   1.000
    H25     H    0.72587   0.57190   0.81015   1.000
    H26     H    0.03610   0.52770   0.81980   1.000
    H27     H    0.53611   0.52778   0.81974   1.000
    H28     H    0.21319   0.45607   0.69183   1.000
    H29     H    0.71318   0.45598   0.69192   1.000
    H30     H    0.02340   0.41176   0.70159   1.000
    H31     H    0.52342   0.41184   0.70152   1.000
    C32     C    0.13151   0.94150   0.17874   1.000
    C33     C    0.63151   0.94152   0.17872   1.000
    C34     C    0.04016   0.96254   0.21413   1.000
    C35     C    0.54016   0.96251   0.21414   1.000
    C36     C    0.21584   0.98615   0.20906   1.000
    C37     C    0.71582   0.98620   0.20901   1.000
    C38     C    0.11779   0.07083   0.31027   1.000
    C39     C    0.61778   0.07084   0.31020   1.000
    C40     C    0.03337   0.02674   0.27949   1.000
    C41     C    0.53337   0.02671   0.27951   1.000
    C42     C    0.20905   0.05036   0.27444   1.000
    C43     C    0.70903   0.05041   0.27439   1.000
    C44     C    0.11812   0.05742   0.67966   1.000
    C45     C    0.61813   0.05742   0.67965   1.000
    C46     C    0.20944   0.03641   0.71500   1.000
    C47     C    0.70946   0.03637   0.71506   1.000
    C48     C    0.03392   0.01188   0.70918   1.000
    C49     C    0.53393   0.01192   0.70920   1.000
    C50     C    0.13206   0.92624   0.80964   1.000
    C51     C    0.63208   0.92624   0.80960   1.000
    C52     C    0.21635   0.97128   0.77971   1.000
    C53     C    0.71637   0.97124   0.77967   1.000
    C54     C    0.04083   0.94675   0.77381   1.000
    C55     C    0.54084   0.94678   0.77383   1.000
    C56     C    0.36796   0.44053   0.32085   1.000
    C57     C    0.86797   0.44061   0.32092   1.000
    C58     C    0.45943   0.46196   0.28592   1.000
    C59     C    0.95944   0.46204   0.28600   1.000
    C60     C    0.28371   0.48560   0.29073   1.000
    C61     C    0.78373   0.48570   0.29083   1.000
    C62     C    0.38213   0.57162   0.19075   1.000
    C63     C    0.88214   0.57169   0.19082   1.000
    C64     C    0.46646   0.52703   0.22126   1.000
    C65     C    0.96647   0.52712   0.22134   1.000
    C66     C    0.29074   0.55068   0.22607   1.000
    C67     C    0.79076   0.55078   0.22617   1.000
    C68     C    0.38169   0.55671   0.82100   1.000
    C69     C    0.88169   0.55663   0.82146   1.000
    C70     C    0.29034   0.53628   0.78585   1.000
    C71     C    0.79032   0.53618   0.78593   1.000
    C72     C    0.46590   0.51156   0.79123   1.000
    C73     C    0.96589   0.51148   0.79130   1.000
    C74     C    0.36764   0.42739   0.68990   1.000
    C75     C    0.86763   0.42731   0.69005   1.000
    C76     C    0.28336   0.47207   0.72052   1.000
    C77     C    0.78334   0.47198   0.72060   1.000
    C78     C    0.45892   0.44734   0.72590   1.000
    C79     C    0.95891   0.44726   0.72597   1.000
loop_
    _geom_bond_atom_site_label_1
    _geom_bond_atom_site_label_2
    _geom_bond_distance
    _geom_bond_site_symmetry_2
    _ccdc_geom_bond_type
    C33    C37       1.40431      .   S
    C33    C35       1.40454      .   S
    C32    C36       1.40428      .   S
    C32    C34       1.40456      .   S
    H3     C37       1.08879      .   S
    H2     C36       1.08877      .   S
    H1     C34       1.08873  1_655   S
    H0     C35       1.08873      .   S
    C62    C64       1.40423      .   S
    C62    C66       1.40465      .   S
    C63    C65       1.40427      .   S
    C63    C67       1.40469      .   S
    H21    C64       1.08878      .   S
    H20    C65       1.08873  1_455   S
    H22    C66       1.08877      .   S
    H23    C67       1.08879      .   S
    C37    C43       1.38976  1_565   S
    C36    C42       1.38978  1_565   S
    C34    C40       1.38948  1_565   S
    C35    C41       1.38960  1_565   S
    C64    C58       1.38971      .   S
    C65    C59       1.38968      .   S
    C66    C60       1.38978      .   S
    C67    C61       1.38976      .   S
    C43    H7        1.08881      .   S
    C43    C39       1.40423      .   S
    C42    H6        1.08882      .   S
    C42    C38       1.40459      .   S
    C40    H5        1.08870  1_455   S
    C40    C38       1.40428      .   S
    C41    H4        1.08870      .   S
    C41    C39       1.40397      .   S
    C58    H17       1.08875      .   S
    C58    C56       1.40472      .   S
    C59    H16       1.08868  1_655   S
    C59    C57       1.40465      .   S
    C60    H18       1.08877      .   S
    C60    C56       1.40427      .   S
    C61    H19       1.08875      .   S
    C61    C57       1.40422      .   S
    C45    C49       1.40411      .   S
    C45    C47       1.40468      .   S
    C44    C48       1.40414      .   S
    C44    C46       1.40403      .   S
    H11    C48       1.08877  1_655   S
    H10    C49       1.08878      .   S
    C74    C76       1.40469      .   S
    C74    C78       1.40513      .   S
    C75    C77       1.40421      .   S
    C75    C79       1.40458      .   S
    H9     C47       1.08877      .   S
    H8     C46       1.08820      .   S
    H28    C76       1.08878      .   S
    H29    C77       1.08876      .   S
    H31    C78       1.08881      .   S
    H30    C79       1.08876  1_455   S
    C48    C54       1.38972  1_545   S
    C49    C55       1.38975  1_545   S
    C46    C52       1.39065  1_545   S
    C47    C53       1.38948  1_545   S
    C76    C70       1.38945      .   S
    C77    C71       1.38945      .   S
    C78    C72       1.38962      .   S
    C79    C73       1.38963      .   S
    C54    H15       1.08869  1_455   S
    C54    C50       1.40460      .   S
    C55    H14       1.08876      .   S
    C55    C51       1.40442      .   S
    C53    H13       1.08832      .   S
    C53    C51       1.40397      .   S
    C52    H12       1.08876      .   S
    C52    C50       1.40414      .   S
    C70    H24       1.08875      .   S
    C70    C68       1.40199      .   S
    C71    H25       1.08876      .   S
    C71    C69       1.40451      .   S
    C72    H27       1.08879      .   S
    C72    C68       1.40209      .   S
    C73    H26       1.08870  1_655   S
    C73    C69       1.40423      .   S
