# CIF file generated by openbabel 2.4.90, see http://openbabel.sf.net
data_I
_chemical_name_common ''
_cell_length_a 14.732
_cell_length_b 14.779
_cell_length_c 15.757
_cell_angle_alpha 117.881
_cell_angle_beta 97.495
_cell_angle_gamma 89.92
_space_group_name_H-M_alt 'P 1'
_space_group_name_Hall 'P 1'
loop_
    _symmetry_equiv_pos_as_xyz
    x,y,z
loop_
    _atom_site_label
    _atom_site_type_symbol
    _atom_site_fract_x
    _atom_site_fract_y
    _atom_site_fract_z
    _atom_site_occupancy
    N0      N    0.21520   0.29991   0.50187   1.000
    N1      N    0.30106   0.85401   0.21470   1.000
    Zr2     Zr   0.15291   0.06220   0.31424   1.000
    O3      O    0.19953   0.00256   0.30192   1.000
    O4      O    0.17761   0.13722   0.38076   1.000
    Zr5     Zr   0.25043   0.99987   0.50010   1.000
    O6      O    0.25686   0.96242   0.41261   1.000
    O7      O    0.24153   0.09369   0.50865   1.000
loop_
    _geom_bond_atom_site_label_1
    _geom_bond_atom_site_label_2
    _geom_bond_distance
    _geom_bond_site_symmetry_2
    _ccdc_geom_bond_type
    Zr2    O3        1.07677      .   S
    N1     O3        2.57881  1_565   S
    Zr2    O4        1.12921      .   S
    N0     O4        2.27289      .   S
    Zr5    O6        1.23944      .   S
    N1     O6        2.92739      .   S
    Zr5    O7        1.33687  1_565   S
    N0     O7        3.12099      .   S
