# CIF file generated by openbabel 2.4.90, see http://openbabel.sf.net
data_I
_chemical_name_common ''
_cell_length_a 13.72
_cell_length_b 14.236
_cell_length_c 15.975
_cell_angle_alpha 90.004
_cell_angle_beta 89.996
_cell_angle_gamma 89.99
_space_group_name_H-M_alt 'P 1'
_space_group_name_Hall 'P 1'
loop_
    _symmetry_equiv_pos_as_xyz
    x,y,z
loop_
    _atom_site_label
    _atom_site_type_symbol
    _atom_site_fract_x
    _atom_site_fract_y
    _atom_site_fract_z
    _atom_site_occupancy
    V0      V    0.78114   0.23439   0.99845   1.000
    V1      V    0.46926   0.76096   0.49895   1.000
    V2      V    0.96923   0.76095   0.49799   1.000
    V3      V    0.21945   0.73334   0.49800   1.000
    V4      V    0.71945   0.73334   0.49886   1.000
    V5      V    0.03119   0.26195   0.99852   1.000
    V6      V    0.53117   0.26187   0.99900   1.000
    V7      V    0.28100   0.23426   0.99849   1.000
