# CIF file generated by openbabel 2.4.90, see http://openbabel.sf.net
data_I
_chemical_name_common ''
_cell_length_a 10.804
_cell_length_b 10.809
_cell_length_c 18.389
_cell_angle_alpha 73.81
_cell_angle_beta 73.85
_cell_angle_gamma 77.841
_space_group_name_H-M_alt 'P 1'
_space_group_name_Hall 'P 1'
loop_
    _symmetry_equiv_pos_as_xyz
    x,y,z
loop_
    _atom_site_label
    _atom_site_type_symbol
    _atom_site_fract_x
    _atom_site_fract_y
    _atom_site_fract_z
    _atom_site_occupancy
    N0      N    0.00011   0.49995   0.50014   1.000
    N1      N    0.03669   0.44412   0.86991   1.000
    N2      N    0.50024   0.00010   0.00006   1.000
    N3      N    0.55538   0.96413   0.62992   1.000
    N4      N    0.96408   0.55526   0.13176   1.000
    N5      N    0.44387   0.03684   0.36998   1.000
    Zr6     Zr   0.47280   0.54508   0.89821   1.000
    O7      O    0.35287   0.50547   0.88468   1.000
    O8      O    0.64029   0.51407   0.89051   1.000
    O9      O    0.48146   0.38469   0.93531   1.000
    O10     O    0.50062   0.66309   0.81546   1.000
    O11     O    0.47672   0.68637   0.92426   1.000
    O12     O    0.32110   0.55070   0.96932   1.000
    O13     O    0.48484   0.67170   0.93754   1.000
    Zr14    Zr   0.54500   0.47277   0.39838   1.000
    O15     O    0.66298   0.50063   0.31606   1.000
    O16     O    0.55064   0.32108   0.46722   1.000
    O17     O    0.51390   0.64031   0.39062   1.000
    O18     O    0.50532   0.35293   0.38482   1.000
    O19     O    0.67165   0.48477   0.43760   1.000
    O20     O    0.68636   0.47637   0.42443   1.000
    O21     O    0.38466   0.48132   0.43550   1.000
    Zr22    Zr   0.52779   0.45435   0.10158   1.000
    O23     O    0.36035   0.48540   0.10973   1.000
    O24     O    0.64788   0.49380   0.11560   1.000
    O25     O    0.67952   0.44869   0.03268   1.000
    O26     O    0.51583   0.32799   0.06241   1.000
    O27     O    0.52394   0.31318   0.07567   1.000
    O28     O    0.51921   0.61499   0.06465   1.000
    O29     O    0.49934   0.33695   0.18438   1.000
    Zr30    Zr   0.45458   0.52748   0.60151   1.000
    O31     O    0.33705   0.49913   0.68430   1.000
    O32     O    0.44876   0.67933   0.53265   1.000
    O33     O    0.49397   0.64771   0.61507   1.000
    O34     O    0.48579   0.36013   0.60924   1.000
    O35     O    0.31332   0.52371   0.57566   1.000
    O36     O    0.61514   0.51897   0.56455   1.000
    O37     O    0.32815   0.51551   0.56246   1.000
loop_
    _geom_bond_atom_site_label_1
    _geom_bond_atom_site_label_2
    _geom_bond_distance
    _geom_bond_site_symmetry_2
    _ccdc_geom_bond_type
    Zr6    O7        1.54809      .   S
    N1     O7        3.70855      .   S
    Zr6    O8        1.74225      .   S
    N1     O8        4.11696  1_455   S
    Zr6    O9        1.66949      .   S
    N2     O9        3.96972  1_554   S
    Zr6    O10       1.69043      .   S
    N3     O10       4.00957      .   S
    Zr6    O11       1.73508      .   S
    N2     O11       4.08690  1_544   S
    Zr6    O12       1.79163      .   S
    N4     O12       4.17080  1_654   S
    Zr6    O13       1.75854      .   S
    N2     O13       4.07200  1_544   S
    Zr14   O15       1.68560      .   S
    N4     O15       3.99717      .   S
    Zr14   O16       1.77146      .   S
    N3     O16       4.17187  1_565   S
    Zr14   O17       1.74329      .   S
    N5     O17       4.11992  1_545   S
    Zr14   O18       1.54837      .   S
    N5     O18       3.71005      .   S
    Zr14   O19       1.75645      .   S
    N0     O19       4.06993  1_455   S
    Zr14   O20       1.73378      .   S
    N0     O20       4.08429  1_455   S
    Zr14   O21       1.66892      .   S
    N0     O21       3.96840      .   S
    Zr22   O23       1.74038      .   S
    N4     O23       4.11193  1_655   S
    Zr22   O24       1.55305      .   S
    N4     O24       3.71910      .   S
    Zr22   O25       1.77247      .   S
    N1     O25       4.17487  1_456   S
    Zr22   O26       1.75379      .   S
    N2     O26       4.06557      .   S
    Zr22   O27       1.73214      .   S
    N2     O27       4.07893      .   S
    Zr22   O28       1.67169      .   S
    N2     O28       3.97482  1_545   S
    Zr22   O29       1.68808      .   S
    N5     O29       4.00466      .   S
    Zr30   O31       1.68898      .   S
    N1     O31       4.00661      .   S
    Zr30   O32       1.77294      .   S
    N5     O32       4.17609  1_545   S
    Zr30   O33       1.55083      .   S
    N3     O33       3.71347      .   S
    Zr30   O34       1.74128      .   S
    N3     O34       4.11427  1_565   S
    Zr30   O35       1.73125      .   S
    N0     O35       4.07731      .   S
    Zr30   O36       1.67070      .   S
    N0     O36       3.97234  1_455   S
    Zr30   O37       1.75224      .   S
    N0     O37       4.06442      .   S
