# CIF file generated by openbabel 2.4.90, see http://openbabel.sf.net
data_I
_chemical_name_common ''
_cell_length_a 15.945
_cell_length_b 19.362
_cell_length_c 21.91
_cell_angle_alpha 64.228
_cell_angle_beta 88.743
_cell_angle_gamma 76.382
_space_group_name_H-M_alt 'P 1'
_space_group_name_Hall 'P 1'
loop_
    _symmetry_equiv_pos_as_xyz
    x,y,z
loop_
    _atom_site_label
    _atom_site_type_symbol
    _atom_site_fract_x
    _atom_site_fract_y
    _atom_site_fract_z
    _atom_site_occupancy
    N0      N    0.25000   0.99999   0.49997   1.000
    N1      N    0.50118   0.99936   0.24967   1.000
    N2      N    0.99989   0.24998   0.99998   1.000
    N3      N    0.00118   0.49936   0.24965   1.000
    N4      N    0.99882   0.00062   0.75029   1.000
    N5      N    0.50001   0.74999   0.49999   1.000
    N6      N    0.50002   0.24998   0.99998   1.000
    N7      N    0.99976   0.24999   0.49998   1.000
    N8      N    0.99975   0.75000   0.49997   1.000
    N9      N    0.50118   0.49936   0.24967   1.000
    N10     N    0.75001   0.99999   0.99999   1.000
    N11     N    0.50001   0.74999   0.99998   1.000
    N12     N    0.99989   0.74998   0.99998   1.000
    N13     N    0.75002   0.99999   0.49998   1.000
    N14     N    0.25000   0.49998   0.49998   1.000
    N15     N    0.49882   0.50062   0.75029   1.000
    N16     N    0.75002   0.49999   0.99998   1.000
    N17     N    0.75001   0.49999   0.49994   1.000
    N18     N    0.49883   0.00062   0.75029   1.000
    N19     N    0.25000   0.49998   0.99998   1.000
    N20     N    0.99883   0.50062   0.75029   1.000
    N21     N    0.00118   0.99936   0.24967   1.000
    N22     N    0.25000   0.99998   0.99999   1.000
    N23     N    0.50001   0.25000   0.49997   1.000
    Zr24    Zr   0.75127   0.24942   0.24965   1.000
    O25     O    0.83973   0.25645   0.32729   1.000
    O26     O    0.66209   0.24271   0.17219   1.000
    O27     O    0.74654   0.14974   0.35009   1.000
    O28     O    0.75523   0.34948   0.14946   1.000
    O29     O    0.64988   0.34868   0.25105   1.000
    O30     O    0.85257   0.15010   0.24825   1.000
    Zr31    Zr   0.25126   0.24942   0.24964   1.000
    O32     O    0.35255   0.15010   0.24825   1.000
    O33     O    0.24652   0.14974   0.35008   1.000
    O34     O    0.33977   0.25645   0.32729   1.000
    O35     O    0.25521   0.34948   0.14946   1.000
    O36     O    0.14987   0.34868   0.25104   1.000
    O37     O    0.16205   0.24271   0.17218   1.000
    Zr38    Zr   0.24874   0.25055   0.75032   1.000
    O39     O    0.24479   0.15048   0.85050   1.000
    O40     O    0.25348   0.35023   0.64988   1.000
    O41     O    0.35013   0.15129   0.74892   1.000
    O42     O    0.16017   0.24352   0.67268   1.000
    O43     O    0.14745   0.34987   0.75172   1.000
    O44     O    0.33793   0.25725   0.82778   1.000
    Zr45    Zr   0.74876   0.75056   0.75032   1.000
    O46     O    0.75349   0.85023   0.64988   1.000
    O47     O    0.74481   0.65049   0.85050   1.000
    O48     O    0.85014   0.65130   0.74892   1.000
    O49     O    0.64746   0.84987   0.75172   1.000
    O50     O    0.66024   0.74353   0.67268   1.000
    O51     O    0.83791   0.75726   0.82778   1.000
    Zr52    Zr   0.24874   0.75056   0.75031   1.000
    O53     O    0.25347   0.85024   0.64988   1.000
    O54     O    0.24479   0.65049   0.85050   1.000
    O55     O    0.35012   0.65130   0.74892   1.000
    O56     O    0.14744   0.84988   0.75171   1.000
    O57     O    0.33792   0.75726   0.82777   1.000
    O58     O    0.16016   0.74353   0.67267   1.000
    Zr59    Zr   0.25126   0.74942   0.24965   1.000
    O60     O    0.33978   0.75646   0.32729   1.000
    O61     O    0.24653   0.64974   0.35009   1.000
    O62     O    0.35256   0.65011   0.24825   1.000
    O63     O    0.14987   0.84868   0.25105   1.000
    O64     O    0.16205   0.74272   0.17219   1.000
    O65     O    0.25521   0.84949   0.14946   1.000
    Zr66    Zr   0.75127   0.74942   0.24964   1.000
    O67     O    0.85256   0.65011   0.24824   1.000
    O68     O    0.74654   0.64975   0.35007   1.000
    O69     O    0.75522   0.84949   0.14946   1.000
    O70     O    0.64988   0.84868   0.25104   1.000
    O71     O    0.66209   0.74272   0.17218   1.000
    O72     O    0.83972   0.75646   0.32728   1.000
    Zr73    Zr   0.74875   0.25055   0.75031   1.000
    O74     O    0.74480   0.15048   0.85050   1.000
    O75     O    0.85014   0.15130   0.74892   1.000
    O76     O    0.64745   0.34987   0.75172   1.000
    O77     O    0.75349   0.35023   0.64984   1.000
    O78     O    0.66023   0.24352   0.67267   1.000
    O79     O    0.83790   0.25725   0.82777   1.000
loop_
    _geom_bond_atom_site_label_1
    _geom_bond_atom_site_label_2
    _geom_bond_distance
    _geom_bond_site_symmetry_2
    _ccdc_geom_bond_type
    Zr24   O25       2.30187      .   S
    N7     O25       4.55017      .   S
    Zr24   O26       2.30296      .   S
    N6     O26       4.55298  1_556   S
    Zr24   O27       2.22279      .   S
    N13    O27       3.29363  1_565   S
    Zr24   O28       2.22029      .   S
    N16    O28       3.29003  1_556   S
    Zr24   O29       2.21224      .   S
    N9     O29       3.28687      .   S
    Zr24   O30       2.21220      .   S
    N21    O30       3.28674  1_465   S
    Zr31   O32       2.21221      .   S
    N1     O32       3.28679  1_565   S
    Zr31   O33       2.22281      .   S
    N0     O33       3.29360  1_565   S
    Zr31   O34       2.30260      .   S
    N23    O34       4.55199      .   S
    Zr31   O35       2.22022      .   S
    N19    O35       3.28994  1_556   S
    Zr31   O36       2.21221      .   S
    N3     O36       3.28672      .   S
    Zr31   O37       2.30322      .   S
    N2     O37       4.55374  1_656   S
    Zr38   O39       2.22021      .   S
    N22    O39       3.28993  1_565   S
    Zr38   O40       2.22282      .   S
    N14    O40       3.29377      .   S
    Zr38   O41       2.21222      .   S
    N18    O41       3.28683      .   S
    Zr38   O42       2.30311      .   S
    N7     O42       4.55370  1_655   S
    Zr38   O43       2.21222      .   S
    N20    O43       3.28678  1_655   S
    Zr38   O44       2.30299      .   S
    N6     O44       4.55296      .   S
    Zr45   O46       2.22280      .   S
    N13    O46       3.29371      .   S
    Zr45   O47       2.22023      .   S
    N16    O47       3.28982      .   S
    Zr45   O48       2.21221      .   S
    N20    O48       3.28683      .   S
    Zr45   O49       2.21224      .   S
    N18    O49       3.28681  1_545   S
    Zr45   O50       2.30250      .   S
    N5     O50       4.55203      .   S
    Zr45   O51       2.30262      .   S
    N12    O51       4.55198      .   S
    Zr52   O53       2.22282      .   S
    N0     O53       3.29378      .   S
    Zr52   O54       2.22026      .   S
    N19    O54       3.28989      .   S
    Zr52   O55       2.21220      .   S
    N15    O55       3.28685      .   S
    Zr52   O56       2.21221      .   S
    N4     O56       3.28674  1_645   S
    Zr52   O57       2.30285      .   S
    N11    O57       4.55308      .   S
    Zr52   O58       2.30313      .   S
    N8     O58       4.55375  1_655   S
    Zr59   O60       2.30256      .   S
    N5     O60       4.55205      .   S
    Zr59   O61       2.22283      .   S
    N14    O61       3.29368      .   S
    Zr59   O62       2.21225      .   S
    N9     O62       3.28690      .   S
    Zr59   O63       2.21221      .   S
    N21    O63       3.28674      .   S
    Zr59   O64       2.30322      .   S
    N12    O64       4.55377  1_656   S
    Zr59   O65       2.22022      .   S
    N22    O65       3.28984  1_556   S
    Zr66   O67       2.21221      .   S
    N3     O67       3.28688  1_455   S
    Zr66   O68       2.22276      .   S
    N17    O68       3.29338      .   S
    Zr66   O69       2.22015      .   S
    N10    O69       3.28978  1_556   S
    Zr66   O70       2.21228      .   S
    N1     O70       3.28684      .   S
    Zr66   O71       2.30289      .   S
    N11    O71       4.55291  1_556   S
    Zr66   O72       2.30194      .   S
    N8     O72       4.55021      .   S
    Zr73   O74       2.22028      .   S
    N10    O74       3.28989  1_565   S
    Zr73   O75       2.21218      .   S
    N4     O75       3.28672      .   S
    Zr73   O76       2.21229      .   S
    N15    O76       3.28695      .   S
    Zr73   O77       2.22343      .   S
    N17    O77       3.29362      .   S
    Zr73   O78       2.30252      .   S
    N23    O78       4.55210      .   S
    Zr73   O79       2.30263      .   S
    N2     O79       4.55193      .   S
