# CIF file generated by openbabel 2.4.90, see http://openbabel.sf.net
data_I
_chemical_name_common ''
_cell_length_a 8.837
_cell_length_b 15.677
_cell_length_c 19.444
_cell_angle_alpha 90.035
_cell_angle_beta 90.012
_cell_angle_gamma 90.146
_space_group_name_H-M_alt 'P 1'
_space_group_name_Hall 'P 1'
loop_
    _symmetry_equiv_pos_as_xyz
    x,y,z
loop_
    _atom_site_label
    _atom_site_type_symbol
    _atom_site_fract_x
    _atom_site_fract_y
    _atom_site_fract_z
    _atom_site_occupancy
    Zr0     Zr   0.36131   0.94733   0.07250   1.000
    Zr1     Zr   0.13825   0.05270   0.57251   1.000
    Zr2     Zr   0.64321   0.44711   0.42461   1.000
    Zr3     Zr   0.86110   0.55300   0.92482   1.000
    N4      N    0.94902   0.94061   0.89012   1.000
    O5      O    0.91538   0.77940   0.90717   1.000
    O6      O    0.04074   0.98814   0.75630   1.000
    O7      O    0.69956   0.95714   0.97028   1.000
    O8      O    0.10765   0.94392   0.96884   1.000
    N9      N    0.44910   0.56021   0.10751   1.000
    O10     O    0.41548   0.72118   0.09035   1.000
    O11     O    0.54290   0.51232   0.24112   1.000
    O12     O    0.19929   0.54343   0.02725   1.000
    O13     O    0.60765   0.55651   0.02869   1.000
    N14     N    0.55098   0.05976   0.38988   1.000
    O15     O    0.58637   0.22085   0.40695   1.000
    O16     O    0.45899   0.01210   0.25617   1.000
    O17     O    0.80015   0.04315   0.47016   1.000
    O18     O    0.39210   0.05629   0.46872   1.000
    N19     N    0.05349   0.43994   0.60754   1.000
    O20     O    0.08578   0.27893   0.59037   1.000
    O21     O    0.96039   0.48781   0.74123   1.000
    O22     O    0.80398   0.45665   0.52715   1.000
    O23     O    0.89553   0.44350   0.52871   1.000
loop_
    _geom_bond_atom_site_label_1
    _geom_bond_atom_site_label_2
    _geom_bond_distance
    _geom_bond_site_symmetry_2
    _ccdc_geom_bond_type
    N4     O5        2.56560      .   S
    Zr3    O5        3.59708      .   S
    N4     O6        2.82543  1_655   S
    Zr1    O6        3.81283  1_545   S
    N4     O7        2.71293      .   S
    Zr0    O7        3.59301  1_554   S
    N4     O8        2.07586  1_655   S
    Zr0    O8        3.01464  1_554   S
    N9     O10       2.56360      .   S
    Zr0    O10       3.59572      .   S
    N9     O11       2.82927      .   S
    Zr2    O11       3.81670      .   S
    N9     O12       2.71540      .   S
    Zr3    O12       3.59460  1_656   S
    N9     O13       2.07758      .   S
    Zr3    O13       3.01681  1_556   S
    N14    O15       2.56525      .   S
    Zr2    O15       3.59736      .   S
    N14    O16       2.82336      .   S
    Zr0    O16       3.81049  1_565   S
    N14    O17       2.71201      .   S
    Zr1    O17       3.59233  1_455   S
    N14    O18       2.07973      .   S
    Zr1    O18       3.01823      .   S
    N19    O20       2.56251      .   S
    Zr1    O20       3.59468      .   S
    N19    O21       2.82823  1_455   S
    Zr3    O21       3.81551      .   S
    N19    O22       2.71579  1_455   S
    Zr2    O22       2.45226      .   S
    N19    O23       2.07380  1_455   S
    Zr2    O23       3.01183      .   S
