# CIF file generated by openbabel 2.4.90, see http://openbabel.sf.net
data_I
_chemical_name_common ''
_cell_length_a 14.172
_cell_length_b 15
_cell_length_c 15.368
_cell_angle_alpha 90.097
_cell_angle_beta 90.015
_cell_angle_gamma 90.035
_space_group_name_H-M_alt 'P 1'
_space_group_name_Hall 'P 1'
loop_
    _symmetry_equiv_pos_as_xyz
    x,y,z
loop_
    _atom_site_label
    _atom_site_type_symbol
    _atom_site_fract_x
    _atom_site_fract_y
    _atom_site_fract_z
    _atom_site_occupancy
    Zn0     Zn   0.37419   0.70706   0.56646   1.000
    Zn1     Zn   0.11125   0.80460   0.46219   1.000
    Zn2     Zn   0.12725   0.20691   0.43293   1.000
    Zn3     Zn   0.61280   0.19560   0.03946   1.000
    Zn4     Zn   0.62590   0.79299   0.06654   1.000
    Zn5     Zn   0.88922   0.69564   0.96035   1.000
    Zn6     Zn   0.87270   0.29296   0.93301   1.000
    Zn7     Zn   0.61260   0.69558   0.46007   1.000
    Zn8     Zn   0.62586   0.29297   0.43343   1.000
    Zn9     Zn   0.88924   0.19556   0.53758   1.000
    Zn10    Zn   0.87303   0.79311   0.56671   1.000
    Zn11    Zn   0.38728   0.80439   0.96033   1.000
    Zn12    Zn   0.37418   0.20703   0.93336   1.000
    Zn13    Zn   0.11076   0.30446   0.03775   1.000
    Zn14    Zn   0.12729   0.70703   0.06680   1.000
    Zn15    Zn   0.00006   0.49997   0.49999   1.000
    Zn16    Zn   0.50099   0.99987   0.49982   1.000
    Zn17    Zn   0.00007   0.99993   0.99999   1.000
    Zn18    Zn   0.50052   0.49995   0.99998   1.000
    Zn19    Zn   0.38742   0.30448   0.53981   1.000
