# CIF file generated by openbabel 2.4.90, see http://openbabel.sf.net
data_I
_chemical_name_common ''
_cell_length_a 17.267
_cell_length_b 17.302
_cell_length_c 17.294
_cell_angle_alpha 97.826
_cell_angle_beta 115.501
_cell_angle_gamma 115.506
_space_group_name_H-M_alt 'P 1'
_space_group_name_Hall 'P 1'
loop_
    _symmetry_equiv_pos_as_xyz
    x,y,z
loop_
    _atom_site_label
    _atom_site_type_symbol
    _atom_site_fract_x
    _atom_site_fract_y
    _atom_site_fract_z
    _atom_site_occupancy
    Zr0     Zr   0.38294   0.78372   0.84670   1.000
    Zr1     Zr   0.88312   0.03722   0.59831   1.000
    Zr2     Zr   0.11679   0.96271   0.40159   1.000
    Zr3     Zr   0.61696   0.21620   0.15313   1.000
    Zr4     Zr   0.06219   0.84719   0.96304   1.000
    Zr5     Zr   0.56177   0.59840   0.21590   1.000
    Zr6     Zr   0.43819   0.40162   0.78395   1.000
    Zr7     Zr   0.93779   0.15282   0.03690   1.000
    Zr8     Zr   0.01662   0.97353   0.66539   1.000
    Zr9     Zr   0.75714   0.97606   0.66231   1.000
    Zr10    Zr   0.51693   0.85116   0.04345   1.000
    Zr11    Zr   0.25663   0.59405   0.78113   1.000
    Zr12    Zr   0.48302   0.14882   0.95647   1.000
    Zr13    Zr   0.74332   0.40591   0.21874   1.000
    Zr14    Zr   0.98333   0.02644   0.33457   1.000
    Zr15    Zr   0.24285   0.02398   0.33765   1.000
    Zr16    Zr   0.69188   0.66570   0.14898   1.000
    Zr17    Zr   0.68642   0.66178   0.40574   1.000
    Zr18    Zr   0.19245   0.04380   0.02666   1.000
    Zr19    Zr   0.18687   0.78184   0.02383   1.000
    Zr20    Zr   0.80754   0.95620   0.97325   1.000
    Zr21    Zr   0.81308   0.21816   0.97609   1.000
    Zr22    Zr   0.30807   0.33432   0.85094   1.000
    Zr23    Zr   0.31358   0.33823   0.59420   1.000
    Zr24    Zr   0.98857   0.02357   0.69670   1.000
    Zr25    Zr   0.98413   0.94051   0.58120   1.000
    Zr26    Zr   0.81195   0.05319   0.65794   1.000
    Zr27    Zr   0.74568   0.90015   0.62573   1.000
    Zr28    Zr   0.48672   0.78960   0.96588   1.000
    Zr29    Zr   0.48710   0.90522   0.04354   1.000
    Zr30    Zr   0.31206   0.65364   0.75944   1.000
    Zr31    Zr   0.24439   0.61830   0.84535   1.000
    Zr32    Zr   0.51336   0.21050   0.03402   1.000
    Zr33    Zr   0.51276   0.09468   0.95640   1.000
    Zr34    Zr   0.68787   0.34630   0.24039   1.000
    Zr35    Zr   0.75553   0.38170   0.15448   1.000
    Zr36    Zr   0.01147   0.97650   0.30326   1.000
    Zr37    Zr   0.01572   0.05933   0.41875   1.000
    Zr38    Zr   0.18804   0.94686   0.34202   1.000
    Zr39    Zr   0.25435   0.09990   0.37420   1.000
    Zr40    Zr   0.67478   0.69667   0.20994   1.000
    Zr41    Zr   0.63871   0.58204   0.09529   1.000
    Zr42    Zr   0.60483   0.65730   0.34635   1.000
    Zr43    Zr   0.72643   0.62543   0.38124   1.000
    Zr44    Zr   0.17425   0.96612   0.97682   1.000
    Zr45    Zr   0.14093   0.04410   0.05960   1.000
    Zr46    Zr   0.10555   0.75996   0.94681   1.000
    Zr47    Zr   0.22649   0.84629   0.09977   1.000
    Zr48    Zr   0.82571   0.03388   0.02307   1.000
    Zr49    Zr   0.85906   0.95591   0.94032   1.000
    Zr50    Zr   0.89445   0.24007   0.05309   1.000
    Zr51    Zr   0.77344   0.15372   0.90015   1.000
    Zr52    Zr   0.32513   0.30337   0.78994   1.000
    Zr53    Zr   0.36124   0.41798   0.90465   1.000
    Zr54    Zr   0.39516   0.34268   0.65358   1.000
    Zr55    Zr   0.27359   0.37458   0.61873   1.000
    O56     O    0.88175   0.09335   0.02999   1.000
    O57     O    0.81663   0.99504   0.99816   1.000
    O58     O    0.20668   0.81407   0.06180   1.000
    O59     O    0.14621   0.77090   0.98532   1.000
    O60     O    0.16669   0.04395   0.04313   1.000
    O61     O    0.18335   0.00496   0.00174   1.000
    O62     O    0.56516   0.21335   0.09358   1.000
    O63     O    0.49819   0.17966   0.99525   1.000
    O64     O    0.91612   0.19645   0.04499   1.000
    O65     O    0.50201   0.87819   0.04349   1.000
    O66     O    0.50182   0.82038   0.00466   1.000
    O67     O    0.85376   0.22912   0.01459   1.000
    O68     O    0.66529   0.62387   0.12214   1.000
    O69     O    0.68333   0.68118   0.17946   1.000
    O70     O    0.65242   0.28125   0.19676   1.000
    O71     O    0.74942   0.39381   0.18661   1.000
    O72     O    0.61827   0.64753   0.21292   1.000
    O73     O    0.58330   0.62785   0.28113   1.000
    O74     O    0.71559   0.37611   0.22957   1.000
    O75     O    0.99740   0.00147   0.31891   1.000
    O76     O    0.06413   0.96961   0.35242   1.000
    O77     O    0.99952   0.04288   0.37666   1.000
    O78     O    0.21545   0.98542   0.33983   1.000
    O79     O    0.24860   0.06194   0.35592   1.000
    O80     O    0.15241   0.95479   0.37180   1.000
    O81     O    0.64563   0.65954   0.37605   1.000
    O82     O    0.70643   0.64360   0.39349   1.000
    O83     O    0.00037   0.95702   0.62330   1.000
    O84     O    0.29358   0.35640   0.60646   1.000
    O85     O    0.35437   0.34045   0.62389   1.000
    O86     O    0.84754   0.04520   0.62813   1.000
    O87     O    0.93585   0.03040   0.64750   1.000
    O88     O    0.75141   0.93811   0.64402   1.000
    O89     O    0.41667   0.37215   0.71876   1.000
    O90     O    0.78455   0.01463   0.66012   1.000
    O91     O    0.00259   0.99855   0.68105   1.000
    O92     O    0.28434   0.62385   0.77028   1.000
    O93     O    0.34750   0.71868   0.80307   1.000
    O94     O    0.25051   0.60618   0.81324   1.000
    O95     O    0.38166   0.35249   0.78695   1.000
    O96     O    0.31660   0.31884   0.82044   1.000
    O97     O    0.43483   0.78666   0.90629   1.000
    O98     O    0.33466   0.37615   0.87779   1.000
    O99     O    0.79326   0.18594   0.93812   1.000
    O100    O    0.83330   0.95606   0.95678   1.000
    O101    O    0.08387   0.80357   0.95493   1.000
    O102    O    0.49789   0.12175   0.95644   1.000
    O103    O    0.11822   0.90665   0.96993   1.000
    N104    N    0.58866   0.92592   0.77239   1.000
    O105    O    0.50900   0.87373   0.79930   1.000
    O106    O    0.66082   0.95265   0.73016   1.000
    N107    N    0.70260   0.90363   0.30889   1.000
    O108    O    0.62759   0.87740   0.19795   1.000
    O109    O    0.77103   0.95213   0.41892   1.000
    N110    N    0.29738   0.09634   0.69099   1.000
    O111    O    0.22891   0.04781   0.58097   1.000
    O112    O    0.37238   0.12257   0.80195   1.000
    N113    N    0.34546   0.66200   0.07374   1.000
    O114    O    0.42436   0.63438   0.12594   1.000
    O115    O    0.27716   0.70805   0.04709   1.000
    N116    N    0.84566   0.77195   0.68348   1.000
    O117    O    0.92470   0.79912   0.78987   1.000
    O118    O    0.77703   0.72966   0.56939   1.000
    N119    N    0.91219   0.68345   0.33863   1.000
    O120    O    0.83982   0.56944   0.29259   1.000
    O121    O    0.99163   0.78973   0.36606   1.000
    N122    N    0.90537   0.79926   0.09658   1.000
    O123    O    0.96725   0.81954   0.04809   1.000
    O124    O    0.82041   0.75032   0.12278   1.000
    N125    N    0.08774   0.31649   0.66126   1.000
    O126    O    0.16011   0.43051   0.70729   1.000
    O127    O    0.00831   0.21021   0.63383   1.000
    N128    N    0.20240   0.89354   0.79900   1.000
    O129    O    0.27079   0.85156   0.81917   1.000
    O130    O    0.12757   0.92982   0.75009   1.000
    N131    N    0.40556   0.30901   0.10634   1.000
    O132    O    0.46723   0.41901   0.14822   1.000
    O133    O    0.32057   0.19815   0.07017   1.000
    N134    N    0.59446   0.69101   0.89355   1.000
    O135    O    0.53276   0.58100   0.85167   1.000
    O136    O    0.67943   0.80187   0.92973   1.000
    N137    N    0.79759   0.10646   0.20096   1.000
    O138    O    0.87239   0.07016   0.24987   1.000
    O139    O    0.72918   0.14841   0.18075   1.000
    N140    N    0.65447   0.33800   0.92624   1.000
    O141    O    0.72278   0.29195   0.95287   1.000
    O142    O    0.57558   0.36561   0.87401   1.000
    N143    N    0.41131   0.07409   0.22753   1.000
    O144    O    0.49096   0.12626   0.20061   1.000
    O145    O    0.33916   0.04737   0.26978   1.000
    N146    N    0.15432   0.22805   0.31646   1.000
    O147    O    0.07528   0.20088   0.21007   1.000
    O148    O    0.22296   0.27035   0.43054   1.000
    N149    N    0.09458   0.20075   0.90332   1.000
    O150    O    0.03272   0.18048   0.95184   1.000
    O151    O    0.17953   0.24970   0.87711   1.000
loop_
    _geom_bond_atom_site_label_1
    _geom_bond_atom_site_label_2
    _geom_bond_distance
    _geom_bond_site_symmetry_2
    _ccdc_geom_bond_type
    Zr48   O56       1.00933      .   S
    Zr7    O56       1.00933      .   S
    Zr48   O57       0.65874  1_544   S
    Zr20   O57       0.65874      .   S
    Zr19   O58       0.63378      .   S
    Zr47   O58       0.63378      .   S
    Zr19   O59       0.64876  1_554   S
    Zr46   O59       0.64876      .   S
    Zr18   O60       0.62356      .   S
    Zr45   O60       0.62356      .   S
    Zr18   O61       0.65876      .   S
    Zr44   O61       0.65876  1_566   S
    Zr32   O62       1.00909      .   S
    Zr3    O62       1.00909      .   S
    Zr32   O63       0.65877  1_554   S
    Zr12   O63       0.65877      .   S
    Zr7    O64       0.99446      .   S
    Zr50   O64       0.99446      .   S
    Zr10   O65       0.62361      .   S
    Zr29   O65       0.62361      .   S
    Zr10   O66       0.65881      .   S
    Zr28   O66       0.65881  1_556   S
    Zr50   O67       0.64880      .   S
    Zr21   O67       0.64880  1_556   S
    Zr41   O68       0.62366      .   S
    Zr16   O68       0.62366      .   S
    Zr16   O69       0.65884      .   S
    Zr40   O69       0.65884      .   S
    Zr3    O70       0.99424      .   S
    Zr34   O70       0.99424      .   S
    Zr35   O71       0.63362      .   S
    Zr13   O71       0.63362      .   S
    Zr40   O72       1.00908      .   S
    Zr5    O72       1.00908      .   S
    Zr5    O73       0.99472      .   S
    Zr42   O73       0.99472      .   S
    Zr13   O74       0.64882      .   S
    Zr34   O74       0.64882      .   S
    Zr36   O75       0.65887  1_465   S
    Zr14   O75       0.65887      .   S
    Zr36   O76       1.00959      .   S
    Zr2    O76       1.00959      .   S
    Zr14   O77       0.62356      .   S
    Zr37   O77       0.62356  1_455   S
    Zr15   O78       0.64875  1_545   S
    Zr38   O78       0.64875      .   S
    Zr15   O79       0.63359      .   S
    Zr39   O79       0.63359      .   S
    Zr38   O80       0.99432      .   S
    Zr2    O80       0.99432      .   S
    Zr42   O81       0.64888      .   S
    Zr17   O81       0.64888      .   S
    Zr43   O82       0.63360      .   S
    Zr17   O82       0.63360      .   S
    Zr25   O83       0.62353  1_655   S
    Zr8    O83       0.62353      .   S
    Zr23   O84       0.63358      .   S
    Zr55   O84       0.63358      .   S
    Zr23   O85       0.64891      .   S
    Zr54   O85       0.64891      .   S
    Zr1    O86       0.99444      .   S
    Zr26   O86       0.99444      .   S
    Zr1    O87       1.00976      .   S
    Zr24   O87       1.00976      .   S
    Zr27   O88       0.63374      .   S
    Zr9    O88       0.63374      .   S
    Zr54   O89       0.99427      .   S
    Zr6    O89       0.99427      .   S
    Zr26   O90       0.64875      .   S
    Zr9    O90       0.64875  1_565   S
    Zr8    O91       0.65886      .   S
    Zr24   O91       0.65886  1_645   S
    Zr30   O92       0.64888      .   S
    Zr11   O92       0.64888      .   S
    Zr30   O93       0.99414      .   S
    Zr0    O93       0.99414      .   S
    Zr11   O94       0.63357      .   S
    Zr31   O94       0.63357      .   S
    Zr6    O95       1.00940      .   S
    Zr52   O95       1.00940      .   S
    Zr52   O96       0.65880      .   S
    Zr22   O96       0.65880      .   S
    Zr0    O97       1.00938      .   S
    Zr28   O97       1.00938      .   S
    Zr22   O98       0.62367      .   S
    Zr53   O98       0.62367      .   S
    Zr51   O99       0.63374      .   S
    Zr21   O99       0.63374      .   S
    Zr49   O100      0.62350      .   S
    Zr20   O100      0.62350      .   S
    Zr46   O101      0.99452      .   S
    Zr4    O101      0.99452      .   S
    Zr33   O102      0.62362      .   S
    Zr12   O102      0.62362      .   S
    Zr4    O103      1.00938      .   S
    Zr44   O103      1.00938      .   S
    N104   O105      1.58737      .   S
    Zr0    O105      2.60766      .   S
    N104   O106      1.63679      .   S
    Zr9    O106      2.35302      .   S
    N107   O108      1.63758      .   S
    Zr10   O108      2.35005      .   S
    N107   O109      1.57997      .   S
    Zr1    O109      2.58268  1_545   S
    N110   O111      1.57989      .   S
    Zr2    O111      2.58260  1_565   S
    N110   O112      1.63771      .   S
    Zr12   O112      2.35023      .   S
    N113   O114      1.58692      .   S
    Zr5    O114      2.60677      .   S
    N113   O115      1.63687      .   S
    Zr19   O115      2.35299      .   S
    N116   O117      1.58707      .   S
    Zr4    O117      2.60691  1_455   S
    N116   O118      1.63682      .   S
    Zr17   O118      2.35306      .   S
    N119   O120      1.63693      .   S
    Zr13   O120      2.35295      .   S
    N119   O121      1.58674      .   S
    Zr2    O121      2.60597  1_455   S
    N122   O123      1.58014      .   S
    Zr4    O123      2.58300  1_456   S
    N122   O124      1.63759      .   S
    Zr16   O124      2.34995      .   S
    N125   O126      1.63696      .   S
    Zr11   O126      2.35309      .   S
    N125   O127      1.58679      .   S
    Zr1    O127      2.60630  1_655   S
    N128   O129      1.58006      .   S
    Zr0    O129      2.58281      .   S
    N128   O130      1.63738      .   S
    Zr8    O130      2.34967      .   S
    N131   O132      1.57987      .   S
    Zr5    O132      2.58258      .   S
    N131   O133      1.63792      .   S
    Zr18   O133      2.35019      .   S
    N134   O135      1.57990      .   S
    Zr6    O135      2.58260      .   S
    N134   O136      1.63778      .   S
    Zr20   O136      2.35001      .   S
    N137   O138      1.63737      .   S
    Zr14   O138      2.34968      .   S
    N137   O139      1.58003      .   S
    Zr3    O139      2.58274      .   S
    N140   O141      1.63695      .   S
    Zr21   O141      2.35303      .   S
    N140   O142      1.58704      .   S
    Zr6    O142      2.60713      .   S
    N143   O144      1.58734      .   S
    Zr3    O144      2.60772      .   S
    N143   O145      1.63687      .   S
    Zr15   O145      2.35308      .   S
    N146   O147      1.58703      .   S
    Zr7    O147      2.60688  1_655   S
    N146   O148      1.63688      .   S
    Zr23   O148      2.35310      .   S
    N149   O150      1.58022      .   S
    Zr7    O150      2.58301  1_654   S
    N149   O151      1.63753      .   S
    Zr22   O151      2.34986      .   S
