# CIF file generated by openbabel 2.4.90, see http://openbabel.sf.net
data_I
_chemical_name_common ''
_cell_length_a 21.11
_cell_length_b 17.853
_cell_length_c 17.853
_cell_angle_alpha 119.977
_cell_angle_beta 89.995
_cell_angle_gamma 89.962
_space_group_name_H-M_alt 'P 1'
_space_group_name_Hall 'P 1'
loop_
    _symmetry_equiv_pos_as_xyz
    x,y,z
loop_
    _atom_site_label
    _atom_site_type_symbol
    _atom_site_fract_x
    _atom_site_fract_y
    _atom_site_fract_z
    _atom_site_occupancy
    Zr0     Zr   0.44178   0.54725   0.07780   1.000
    Zr1     Zr   0.94177   0.54730   0.07787   1.000
    Zr2     Zr   0.27516   0.53068   0.45270   1.000
    Zr3     Zr   0.77515   0.53074   0.45275   1.000
    Zr4     Zr   0.10850   0.92225   0.46953   1.000
    Zr5     Zr   0.60849   0.92226   0.46957   1.000
    Zr6     Zr   0.19183   0.45265   0.92205   1.000
    Zr7     Zr   0.69183   0.45266   0.92207   1.000
    Zr8     Zr   0.02515   0.46938   0.54718   1.000
    Zr9     Zr   0.52513   0.46937   0.54719   1.000
    Zr10    Zr   0.35847   0.07785   0.53059   1.000
    Zr11    Zr   0.85845   0.07787   0.53060   1.000
    Zr12    Zr   0.44873   0.46162   0.13519   1.000
    Zr13    Zr   0.94875   0.46169   0.13520   1.000
    Zr14    Zr   0.28197   0.67358   0.53820   1.000
    Zr15    Zr   0.78193   0.67364   0.53827   1.000
    Zr16    Zr   0.11541   0.86493   0.32660   1.000
    Zr17    Zr   0.61542   0.86492   0.32665   1.000
    Zr18    Zr   0.19870   0.53815   0.86459   1.000
    Zr19    Zr   0.69866   0.53817   0.86462   1.000
    Zr20    Zr   0.03200   0.32647   0.46150   1.000
    Zr21    Zr   0.53201   0.32647   0.46159   1.000
    Zr22    Zr   0.36541   0.13512   0.67300   1.000
    Zr23    Zr   0.86543   0.13515   0.67350   1.000
    O24     O    0.44526   0.50444   0.10650   1.000
    O25     O    0.94526   0.50449   0.10653   1.000
    O26     O    0.11195   0.89359   0.39807   1.000
    O27     O    0.61195   0.89359   0.39811   1.000
    O28     O    0.27856   0.60213   0.49545   1.000
    O29     O    0.77854   0.60219   0.49551   1.000
    O30     O    0.02857   0.39792   0.50434   1.000
    O31     O    0.52857   0.39792   0.50439   1.000
    O32     O    0.36194   0.10649   0.60180   1.000
    O33     O    0.86194   0.10651   0.60205   1.000
    O34     O    0.19527   0.49540   0.89332   1.000
    O35     O    0.69524   0.49541   0.89334   1.000
    N36     N    0.55571   0.55579   0.49314   1.000
    O37     O    0.54269   0.53610   0.51064   1.000
    O38     O    0.58243   0.81685   0.52740   1.000
    N39     N    0.47239   0.49320   0.93744   1.000
    O40     O    0.45936   0.51070   0.97461   1.000
    O41     O    0.49907   0.52730   0.71046   1.000
    N42     N    0.30578   0.44419   0.50669   1.000
    O43     O    0.29275   0.46391   0.48920   1.000
    O44     O    0.33246   0.18321   0.47263   1.000
    N45     N    0.88908   0.93745   0.44422   1.000
    O46     O    0.87605   0.97463   0.46390   1.000
    O47     O    0.91574   0.71055   0.18319   1.000
    N48     N    0.63902   0.06265   0.55583   1.000
    O49     O    0.62602   0.02548   0.53620   1.000
    O50     O    0.66583   0.28949   0.81682   1.000
    N51     N    0.72237   0.50668   0.06248   1.000
    O52     O    0.70937   0.48918   0.02531   1.000
    O53     O    0.74917   0.47273   0.28949   1.000
    N54     N    0.97238   0.49324   0.93743   1.000
    O55     O    0.95935   0.51075   0.97462   1.000
    O56     O    0.99908   0.52732   0.71045   1.000
    N57     N    0.80577   0.44425   0.50673   1.000
    O58     O    0.79274   0.46396   0.48925   1.000
    O59     O    0.83244   0.18324   0.47265   1.000
    N60     N    0.38911   0.93744   0.44422   1.000
    O61     O    0.37607   0.97462   0.46390   1.000
    O62     O    0.41576   0.71052   0.18318   1.000
    N63     N    0.13903   0.06265   0.55583   1.000
    O64     O    0.12603   0.02548   0.53618   1.000
    O65     O    0.16584   0.28949   0.81680   1.000
    N66     N    0.05574   0.55580   0.49314   1.000
    O67     O    0.04272   0.53611   0.51064   1.000
    O68     O    0.08246   0.81685   0.52737   1.000
    N69     N    0.22237   0.50668   0.06248   1.000
    O70     O    0.20936   0.48918   0.02530   1.000
    O71     O    0.24916   0.47269   0.28946   1.000
    C72     C    0.32417   0.46768   0.96259   1.000
    O73     O    0.35787   0.50038   0.00825   1.000
    O74     O    0.28300   0.45185   0.93899   1.000
    O75     O    0.36326   0.43579   0.92001   1.000
    C76     C    0.57413   0.53224   0.03738   1.000
    O77     O    0.53294   0.54806   0.06096   1.000
    O78     O    0.61320   0.56412   0.07991   1.000
    O79     O    0.60787   0.49956   0.99168   1.000
    C80     C    0.82416   0.46770   0.96258   1.000
    O81     O    0.78299   0.45186   0.93899   1.000
    O82     O    0.85786   0.50040   0.00826   1.000
    O83     O    0.86302   0.43581   0.92002   1.000
    C84     C    0.07414   0.53228   0.03736   1.000
    O85     O    0.11320   0.56415   0.07989   1.000
    O86     O    0.10788   0.49958   0.99167   1.000
    O87     O    0.03294   0.54811   0.06096   1.000
    C88     C    0.15750   0.49475   0.53223   1.000
    O89     O    0.11631   0.48696   0.54802   1.000
    O90     O    0.19122   0.50784   0.49958   1.000
    O91     O    0.19660   0.48411   0.56412   1.000
    C92     C    0.65749   0.49479   0.53224   1.000
    O93     O    0.61629   0.48699   0.54803   1.000
    O94     O    0.69658   0.48414   0.56413   1.000
    O95     O    0.69121   0.50788   0.49960   1.000
    C96     C    0.90749   0.50532   0.46767   1.000
    O97     O    0.86630   0.51310   0.45187   1.000
    O98     O    0.94657   0.51597   0.43576   1.000
    O99     O    0.94121   0.49226   0.50034   1.000
    C100    C    0.40749   0.50525   0.46761   1.000
    O101    O    0.36631   0.51302   0.45181   1.000
    O102    O    0.44658   0.51592   0.43572   1.000
    O103    O    0.44121   0.49221   0.50031   1.000
    C104    C    0.49082   0.03754   0.50521   1.000
    O105    O    0.52987   0.08009   0.51586   1.000
    O106    O    0.52455   0.99187   0.49226   1.000
    O107    O    0.44962   0.06108   0.51294   1.000
    C108    C    0.99082   0.03752   0.50517   1.000
    O109    O    0.02987   0.08008   0.51581   1.000
    O110    O    0.02456   0.99185   0.49222   1.000
    O111    O    0.94962   0.06107   0.51291   1.000
    C112    C    0.74084   0.96264   0.49497   1.000
    O113    O    0.69966   0.93908   0.48723   1.000
    O114    O    0.77455   0.00830   0.50794   1.000
    O115    O    0.77993   0.92006   0.48429   1.000
    C116    C    0.24086   0.96261   0.49491   1.000
    O117    O    0.19967   0.93905   0.48717   1.000
    O118    O    0.27456   0.00827   0.50789   1.000
    O119    O    0.27995   0.92003   0.48424   1.000
loop_
    _geom_bond_atom_site_label_1
    _geom_bond_atom_site_label_2
    _geom_bond_distance
    _geom_bond_site_symmetry_2
    _ccdc_geom_bond_type
    Zr0    O24       1.11508      .   S
    Zr12   O24       1.11508      .   S
    Zr1    O25       1.11450      .   S
    Zr13   O25       1.11450      .   S
    Zr16   O26       1.11468      .   S
    Zr4    O26       1.11468      .   S
    Zr17   O27       1.11460      .   S
    Zr5    O27       1.11460      .   S
    Zr2    O28       1.11448      .   S
    Zr14   O28       1.11448      .   S
    Zr3    O29       1.11446      .   S
    Zr15   O29       1.11446      .   S
    Zr20   O30       1.11460      .   S
    Zr8    O30       1.11460      .   S
    Zr21   O31       1.11453      .   S
    Zr9    O31       1.11453      .   S
    Zr10   O32       1.11058      .   S
    Zr22   O32       1.11058      .   S
    Zr11   O33       1.11459      .   S
    Zr23   O33       1.11459      .   S
    Zr18   O34       1.11446      .   S
    Zr6    O34       1.11446      .   S
    Zr19   O35       1.11447      .   S
    Zr7    O35       1.11447      .   S
    N36    O37       0.63772      .   S
    Zr9    O37       1.66125      .   S
    N36    O38       4.42373      .   S
    Zr5    O38       2.61765      .   S
    N39    O40       0.63736      .   S
    Zr0    O40       1.66009  1_554   S
    N39    O41       4.42419      .   S
    Zr9    O41       2.61829      .   S
    N42    O43       0.63767      .   S
    Zr2    O43       1.66121      .   S
    N42    O44       4.42284      .   S
    Zr10   O44       2.61799      .   S
    N45    O46       0.63757      .   S
    Zr11   O46       1.66097  1_545   S
    N45    O47       4.42435      .   S
    Zr1    O47       2.61786      .   S
    N48    O49       0.63753      .   S
    Zr5    O49       1.66084  1_565   S
    N48    O50       4.42476      .   S
    Zr7    O50       2.61721      .   S
    N51    O52       0.63755      .   S
    Zr7    O52       1.66095  1_556   S
    N51    O53       4.42345      .   S
    Zr3    O53       2.61784      .   S
    N54    O55       0.63762      .   S
    Zr1    O55       1.66102  1_554   S
    N54    O56       4.42409      .   S
    Zr8    O56       2.61827  1_455   S
    N57    O58       0.63769      .   S
    Zr3    O58       1.66125      .   S
    N57    O59       4.42310      .   S
    Zr11   O59       2.61802      .   S
    N60    O61       0.63756      .   S
    Zr10   O61       1.66095  1_545   S
    N60    O62       4.42466      .   S
    Zr0    O62       2.61816      .   S
    N63    O64       0.63756      .   S
    Zr4    O64       1.66094  1_565   S
    N63    O65       4.42446      .   S
    Zr6    O65       2.61721      .   S
    N66    O67       0.63769      .   S
    Zr8    O67       1.66125      .   S
    N66    O68       4.42371      .   S
    Zr4    O68       2.61771      .   S
    N69    O70       0.63759      .   S
    Zr6    O70       1.66104  1_556   S
    N69    O71       4.42333      .   S
    Zr2    O71       2.61771      .   S
    C72    O73       1.01812  1_556   S
    Zr0    O73       2.08414      .   S
    C72    O74       0.94566      .   S
    Zr6    O74       1.94922      .   S
    C72    O75       1.07220      .   S
    N39    O75       2.47774      .   S
    C76    O77       0.94552      .   S
    Zr0    O77       1.94883      .   S
    C76    O78       1.07209      .   S
    N51    O78       2.47753      .   S
    C76    O79       1.01832  1_554   S
    Zr7    O79       2.08433      .   S
    C80    O81       0.94567      .   S
    Zr7    O81       1.94918      .   S
    C80    O82       1.01824  1_556   S
    Zr1    O82       2.08454      .   S
    C80    O83       1.06837      .   S
    N54    O83       2.48237      .   S
    C84    O85       1.07201      .   S
    N69    O85       2.47750      .   S
    C84    O86       1.01826  1_554   S
    Zr6    O86       2.08448      .   S
    C84    O87       0.94569      .   S
    Zr1    O87       1.94939  1_655   S
    C88    O89       0.94556      .   S
    Zr8    O89       1.94893      .   S
    C88    O90       1.01861      .   S
    Zr2    O90       2.08523      .   S
    C88    O91       1.07206      .   S
    N42    O91       2.47776      .   S
    C92    O93       0.94568      .   S
    Zr9    O93       1.94904      .   S
    C92    O94       1.07204      .   S
    N57    O94       2.47769      .   S
    C92    O95       1.01847      .   S
    Zr3    O95       2.08511      .   S
    C96    O97       0.94530      .   S
    Zr3    O97       1.94848      .   S
    C96    O98       1.07234      .   S
    N66    O98       2.47797  1_455   S
    C96    O99       1.01840      .   S
    Zr8    O99       2.08491  1_455   S
    C100   O101      0.94532      .   S
    Zr2    O101      1.94849      .   S
    C100   O102      1.07219      .   S
    N36    O102      2.47760      .   S
    C100   O103      1.01841      .   S
    Zr9    O103      2.08462      .   S
    C104   O105      1.07217      .   S
    N48    O105      2.47715      .   S
    C104   O106      1.01793  1_545   S
    Zr5    O106      2.08372      .   S
    C104   O107      0.94522      .   S
    Zr10   O107      1.94853      .   S
    C108   O109      1.07229  1_655   S
    N63    O109      2.47765      .   S
    C108   O110      1.01797  1_645   S
    Zr4    O110      2.08378      .   S
    C108   O111      0.94540      .   S
    Zr11   O111      1.94877      .   S
    C112   O113      0.94567      .   S
    Zr5    O113      1.94935      .   S
    C112   O114      1.01816  1_565   S
    Zr11   O114      2.08435      .   S
    C112   O115      1.07212      .   S
    N45    O115      2.47785      .   S
    C116   O117      0.94567      .   S
    Zr4    O117      1.94930      .   S
    C116   O118      1.01818  1_565   S
    Zr10   O118      2.08439      .   S
    C116   O119      1.07212      .   S
    N60    O119      2.47785      .   S
