# CIF file generated by openbabel 2.4.90, see http://openbabel.sf.net
data_I
_chemical_name_common ''
_cell_length_a 18.597
_cell_length_b 22.63
_cell_length_c 16.545
_cell_angle_alpha 107.033
_cell_angle_beta 90.063
_cell_angle_gamma 114.039
_space_group_name_H-M_alt 'P 1'
_space_group_name_Hall 'P 1'
loop_
    _symmetry_equiv_pos_as_xyz
    x,y,z
loop_
    _atom_site_label
    _atom_site_type_symbol
    _atom_site_fract_x
    _atom_site_fract_y
    _atom_site_fract_z
    _atom_site_occupancy
    N0      N    0.91671   0.26276   0.80948   1.000
    N1      N    0.84642   0.26347   0.30940   1.000
    N2      N    0.84641   0.76348   0.30940   1.000
    N3      N    0.15357   0.23656   0.69061   1.000
    N4      N    0.08326   0.73727   0.19054   1.000
    N5      N    0.58326   0.23727   0.19054   1.000
    N6      N    0.15356   0.73656   0.69059   1.000
    N7      N    0.41673   0.26276   0.80948   1.000
    N8      N    0.41672   0.76276   0.80947   1.000
    N9      N    0.34643   0.26348   0.30940   1.000
    N10     N    0.58326   0.73728   0.19054   1.000
    N11     N    0.08327   0.23727   0.19054   1.000
    N12     N    0.34642   0.76348   0.30940   1.000
    N13     N    0.65355   0.73656   0.69056   1.000
    N14     N    0.65356   0.23656   0.69061   1.000
    N15     N    0.91671   0.76276   0.80948   1.000
    Zr16    Zr   0.12950   0.99997   0.75005   1.000
    O17     O    0.04979   0.89521   0.76681   1.000
    O18     O    0.12741   0.88474   0.72543   1.000
    O19     O    0.11372   0.09068   0.90710   1.000
    O20     O    0.02316   0.90964   0.59292   1.000
    O21     O    0.15456   0.10446   0.73327   1.000
    O22     O    0.24268   0.11492   0.77467   1.000
    Zr23    Zr   0.37050   0.50007   0.24995   1.000
    O24     O    0.47682   0.59040   0.40707   1.000
    O25     O    0.38627   0.40936   0.09291   1.000
    O26     O    0.45019   0.60483   0.23320   1.000
    O27     O    0.37258   0.61530   0.27457   1.000
    O28     O    0.34544   0.39558   0.26674   1.000
    O29     O    0.25731   0.38511   0.22533   1.000
    Zr30    Zr   0.12949   0.49997   0.75006   1.000
    O31     O    0.24268   0.61492   0.77467   1.000
    O32     O    0.15455   0.60446   0.73327   1.000
    O33     O    0.11372   0.59068   0.90710   1.000
    O34     O    0.02316   0.40964   0.59292   1.000
    O35     O    0.04979   0.39520   0.76681   1.000
    O36     O    0.12741   0.38474   0.72544   1.000
    Zr37    Zr   0.37050   0.00007   0.24996   1.000
    O38     O    0.34543   0.89558   0.26674   1.000
    O39     O    0.25731   0.88511   0.22534   1.000
    O40     O    0.38627   0.90936   0.09290   1.000
    O41     O    0.47682   0.09040   0.40710   1.000
    O42     O    0.37258   0.11530   0.27458   1.000
    O43     O    0.45019   0.10483   0.23320   1.000
    Zr44    Zr   0.62948   0.49997   0.75005   1.000
    O45     O    0.52316   0.40964   0.59292   1.000
    O46     O    0.65454   0.60446   0.73326   1.000
    O47     O    0.74267   0.61493   0.77467   1.000
    O48     O    0.61370   0.59069   0.90710   1.000
    O49     O    0.62740   0.38474   0.72544   1.000
    O50     O    0.54979   0.39521   0.76681   1.000
    Zr51    Zr   0.87049   0.00007   0.24996   1.000
    O52     O    0.97682   0.09039   0.40709   1.000
    O53     O    0.88626   0.90936   0.09291   1.000
    O54     O    0.84542   0.89558   0.26674   1.000
    O55     O    0.75730   0.88511   0.22535   1.000
    O56     O    0.87257   0.11530   0.27457   1.000
    O57     O    0.95019   0.10483   0.23320   1.000
    Zr58    Zr   0.87048   0.50006   0.24996   1.000
    O59     O    0.97682   0.59040   0.40709   1.000
    O60     O    0.87257   0.61530   0.27458   1.000
    O61     O    0.95018   0.60483   0.23320   1.000
    O62     O    0.88626   0.40935   0.09292   1.000
    O63     O    0.84543   0.39557   0.26674   1.000
    O64     O    0.75730   0.38511   0.22535   1.000
    Zr65    Zr   0.62948   0.99997   0.75005   1.000
    O66     O    0.54979   0.89521   0.76681   1.000
    O67     O    0.62740   0.88474   0.72543   1.000
    O68     O    0.52315   0.90964   0.59292   1.000
    O69     O    0.74267   0.11492   0.77467   1.000
    O70     O    0.65454   0.10446   0.73327   1.000
    O71     O    0.61371   0.09068   0.90710   1.000
loop_
    _geom_bond_atom_site_label_1
    _geom_bond_atom_site_label_2
    _geom_bond_distance
    _geom_bond_site_symmetry_2
    _ccdc_geom_bond_type
    Zr16   O17       2.32755      .   S
    N15    O17       3.28733  1_655   S
    Zr16   O18       2.50255      .   S
    N6     O18       3.46559      .   S
    Zr16   O19       2.90148  1_565   S
    N11    O19       5.07340  1_554   S
    Zr16   O20       2.90346      .   S
    N2     O20       5.07612  1_655   S
    Zr16   O21       2.31787  1_565   S
    N3     O21       3.27349      .   S
    Zr16   O22       2.50600  1_565   S
    N7     O22       3.47067      .   S
    Zr23   O24       2.90319      .   S
    N13    O24       5.07566      .   S
    Zr23   O25       2.90150      .   S
    N7     O25       5.07339  1_556   S
    Zr23   O26       2.32749      .   S
    N10    O26       3.28720      .   S
    Zr23   O27       2.50258      .   S
    N12    O27       3.46564      .   S
    Zr23   O28       2.31800      .   S
    N9     O28       3.27359      .   S
    Zr23   O29       2.50603      .   S
    N11    O29       3.47073      .   S
    Zr30   O31       2.50602      .   S
    N8     O31       3.47067      .   S
    Zr30   O32       2.31798      .   S
    N6     O32       3.27370      .   S
    Zr30   O33       2.90151      .   S
    N4     O33       5.07344  1_554   S
    Zr30   O34       2.90344      .   S
    N1     O34       5.07615  1_655   S
    Zr30   O35       2.32758      .   S
    N0     O35       3.28735  1_655   S
    Zr30   O36       2.50262      .   S
    N3     O36       3.46568      .   S
    Zr37   O38       2.31787  1_545   S
    N12    O38       3.27351      .   S
    Zr37   O39       2.50601  1_545   S
    N4     O39       3.47072      .   S
    Zr37   O40       2.90165  1_545   S
    N8     O40       5.07329  1_556   S
    Zr37   O41       2.90337      .   S
    N14    O41       5.07595      .   S
    Zr37   O42       2.50255      .   S
    N9     O42       3.46561      .   S
    Zr37   O43       2.32749      .   S
    N5     O43       3.28722      .   S
    Zr44   O45       2.90336      .   S
    N9     O45       5.07598      .   S
    Zr44   O46       2.31800      .   S
    N13    O46       3.27384      .   S
    Zr44   O47       2.50601      .   S
    N15    O47       3.47068      .   S
    Zr44   O48       2.90156      .   S
    N10    O48       5.07342  1_554   S
    Zr44   O49       2.50263      .   S
    N14    O49       3.46570      .   S
    Zr44   O50       2.32756      .   S
    N7     O50       3.28729      .   S
    Zr51   O52       2.90347      .   S
    N3     O52       5.07611  1_455   S
    Zr51   O53       2.90148  1_545   S
    N15    O53       5.07339  1_556   S
    Zr51   O54       2.31789  1_545   S
    N2     O54       3.27353      .   S
    Zr51   O55       2.50602  1_545   S
    N10    O55       3.47066      .   S
    Zr51   O56       2.50253      .   S
    N1     O56       3.46559      .   S
    Zr51   O57       2.32753      .   S
    N11    O57       3.28734  1_455   S
    Zr58   O59       2.90339      .   S
    N6     O59       5.07588  1_455   S
    Zr58   O60       2.50261      .   S
    N2     O60       3.46567      .   S
    Zr58   O61       2.32756      .   S
    N4     O61       3.28736  1_455   S
    Zr58   O62       2.90154      .   S
    N0     O62       5.07344  1_556   S
    Zr58   O63       2.31796      .   S
    N1     O63       3.27353      .   S
    Zr58   O64       2.50603      .   S
    N5     O64       3.47067      .   S
    Zr65   O66       2.32752      .   S
    N8     O66       3.28724      .   S
    Zr65   O67       2.50252      .   S
    N13    O67       3.46554      .   S
    Zr65   O68       2.90337      .   S
    N12    O68       5.07600      .   S
    Zr65   O69       2.50599  1_565   S
    N0     O69       3.47068      .   S
    Zr65   O70       2.31788  1_565   S
    N14    O70       3.27352      .   S
    Zr65   O71       2.90152  1_565   S
    N5     O71       5.07337  1_554   S
