# CIF file generated by openbabel 2.4.90, see http://openbabel.sf.net
data_I
_chemical_name_common ''
_cell_length_a 18.423
_cell_length_b 18.43
_cell_length_c 18.43
_cell_angle_alpha 60.187
_cell_angle_beta 60.175
_cell_angle_gamma 60.177
_space_group_name_H-M_alt 'P 1'
_space_group_name_Hall 'P 1'
loop_
    _symmetry_equiv_pos_as_xyz
    x,y,z
loop_
    _atom_site_label
    _atom_site_type_symbol
    _atom_site_fract_x
    _atom_site_fract_y
    _atom_site_fract_z
    _atom_site_occupancy
    Zr0     Zr   0.20668   0.38041   0.20668   1.000
    Zr1     Zr   0.38050   0.20670   0.20669   1.000
    Zr2     Zr   0.20625   0.20637   0.20636   1.000
    Zr3     Zr   0.20668   0.20669   0.38041   1.000
    Zr4     Zr   0.61952   0.79330   0.79328   1.000
    Zr5     Zr   0.79334   0.61958   0.79329   1.000
    Zr6     Zr   0.79376   0.79362   0.79360   1.000
    Zr7     Zr   0.79333   0.79330   0.61956   1.000
    Zr8     Zr   0.11093   0.38898   0.11098   1.000
    Zr9     Zr   0.38910   0.11113   0.38906   1.000
    Zr10    Zr   0.11094   0.11098   0.38896   1.000
    Zr11    Zr   0.38910   0.38907   0.11110   1.000
    Zr12    Zr   0.11109   0.38907   0.38906   1.000
    Zr13    Zr   0.38897   0.11099   0.11096   1.000
    Zr14    Zr   0.61104   0.88900   0.88901   1.000
    Zr15    Zr   0.88892   0.61092   0.61091   1.000
    Zr16    Zr   0.88907   0.88902   0.61101   1.000
    Zr17    Zr   0.61091   0.61092   0.88886   1.000
    Zr18    Zr   0.61091   0.88887   0.61091   1.000
    Zr19    Zr   0.88908   0.61102   0.88899   1.000
    Zr20    Zr   0.25000   0.25000   0.24999   1.000
    Zr21    Zr   0.75001   0.75000   0.74998   1.000
    Zr22    Zr   0.13320   0.42860   0.13318   1.000
    Zr23    Zr   0.42870   0.13333   0.30531   1.000
    Zr24    Zr   0.13284   0.30520   0.13299   1.000
    Zr25    Zr   0.30531   0.13324   0.42864   1.000
    Zr26    Zr   0.13283   0.13302   0.30518   1.000
    Zr27    Zr   0.42870   0.30532   0.13331   1.000
    Zr28    Zr   0.13320   0.13318   0.42850   1.000
    Zr29    Zr   0.30530   0.42864   0.13324   1.000
    Zr30    Zr   0.13326   0.30532   0.42863   1.000
    Zr31    Zr   0.42863   0.13320   0.13300   1.000
    Zr32    Zr   0.13326   0.42864   0.30531   1.000
    Zr33    Zr   0.30515   0.13296   0.13296   1.000
    Zr34    Zr   0.57139   0.86680   0.86677   1.000
    Zr35    Zr   0.86675   0.57135   0.69466   1.000
    Zr36    Zr   0.69486   0.86703   0.86701   1.000
    Zr37    Zr   0.86675   0.69467   0.57134   1.000
    Zr38    Zr   0.86718   0.86698   0.69479   1.000
    Zr39    Zr   0.69471   0.57135   0.86674   1.000
    Zr40    Zr   0.86681   0.86680   0.57139   1.000
    Zr41    Zr   0.57131   0.69467   0.86666   1.000
    Zr42    Zr   0.69471   0.86675   0.57133   1.000
    Zr43    Zr   0.86681   0.57140   0.86679   1.000
    Zr44    Zr   0.57131   0.86667   0.69466   1.000
    Zr45    Zr   0.86717   0.69480   0.86698   1.000
    O46     O    0.34706   0.12197   0.12196   1.000
    O47     O    0.40880   0.12209   0.12198   1.000
    O48     O    0.12189   0.34709   0.12198   1.000
    O49     O    0.12207   0.40879   0.12208   1.000
    O50     O    0.34720   0.40886   0.12217   1.000
    O51     O    0.40890   0.34719   0.12221   1.000
    O52     O    0.25570   0.16966   0.16966   1.000
    O53     O    0.16955   0.25578   0.16967   1.000
    O54     O    0.40456   0.16995   0.16985   1.000
    O55     O    0.16994   0.40450   0.16993   1.000
    O56     O    0.25599   0.40453   0.16996   1.000
    O57     O    0.40460   0.25601   0.17000   1.000
    O58     O    0.16954   0.16970   0.25577   1.000
    O59     O    0.22834   0.31520   0.22833   1.000
    O60     O    0.16997   0.40452   0.25600   1.000
    O61     O    0.40460   0.17001   0.25600   1.000
    O62     O    0.22834   0.22834   0.31520   1.000
    O63     O    0.12189   0.12200   0.34707   1.000
    O64     O    0.12218   0.40885   0.34718   1.000
    O65     O    0.40890   0.12223   0.34718   1.000
    O66     O    0.16994   0.16994   0.40446   1.000
    O67     O    0.16997   0.25601   0.40452   1.000
    O68     O    0.25599   0.16997   0.40453   1.000
    O69     O    0.12207   0.12208   0.40873   1.000
    O70     O    0.12218   0.34720   0.40885   1.000
    O71     O    0.34720   0.12219   0.40885   1.000
    O72     O    0.65281   0.87781   0.59112   1.000
    O73     O    0.74402   0.83003   0.59545   1.000
    O74     O    0.87783   0.65280   0.59112   1.000
    O75     O    0.83004   0.74399   0.59545   1.000
    O76     O    0.87794   0.87791   0.59120   1.000
    O77     O    0.83007   0.83005   0.59547   1.000
    O78     O    0.87784   0.59114   0.65279   1.000
    O79     O    0.59111   0.87777   0.65279   1.000
    O80     O    0.87812   0.87800   0.65290   1.000
    O81     O    0.77167   0.77165   0.68477   1.000
    O82     O    0.59541   0.82998   0.74397   1.000
    O83     O    0.83004   0.59547   0.74398   1.000
    O84     O    0.83047   0.83030   0.74420   1.000
    O85     O    0.77167   0.68479   0.77163   1.000
    O86     O    0.59542   0.74399   0.82997   1.000
    O87     O    0.59545   0.83005   0.83003   1.000
    O88     O    0.74402   0.59547   0.83001   1.000
    O89     O    0.83007   0.59549   0.83004   1.000
    O90     O    0.83047   0.74421   0.83029   1.000
    O91     O    0.74431   0.83033   0.83030   1.000
    O92     O    0.59111   0.65280   0.87776   1.000
    O93     O    0.65281   0.59114   0.87780   1.000
    O94     O    0.59121   0.87790   0.87789   1.000
    O95     O    0.87795   0.59121   0.87789   1.000
    O96     O    0.87813   0.65291   0.87799   1.000
    O97     O    0.65295   0.87802   0.87801   1.000
    O98     O    0.31525   0.22835   0.22834   1.000
    O99     O    0.22813   0.22818   0.22817   1.000
    O100    O    0.68476   0.77165   0.77163   1.000
    O101    O    0.77189   0.77181   0.77179   1.000
    N102    N    0.00001   0.50000   0.99998   1.000
    O103    O    0.95887   0.54117   0.95882   1.000
    O104    O    0.04114   0.45883   0.04114   1.000
    N105    N    0.50001   1.00000   0.49999   1.000
    O106    O    0.54113   0.95880   0.54112   1.000
    O107    O    0.45888   0.04120   0.45885   1.000
    N108    N    0.50001   0.50000   0.99998   1.000
    O109    O    0.54113   0.54113   0.95878   1.000
    O110    O    0.45888   0.45886   0.04118   1.000
    N111    N    0.00001   0.50000   0.49988   1.000
    O112    O    0.04120   0.45886   0.45880   1.000
    O113    O    0.95881   0.54113   0.54107   1.000
    N114    N    0.50001   1.00000   0.99998   1.000
    O115    O    0.54118   0.95884   0.95882   1.000
    O116    O    0.45883   0.04115   0.04113   1.000
    N117    N    0.00001   1.00000   0.49999   1.000
    O118    O    0.04114   0.04116   0.45881   1.000
    O119    O    0.95887   0.95883   0.54116   1.000
loop_
    _geom_bond_atom_site_label_1
    _geom_bond_atom_site_label_2
    _geom_bond_distance
    _geom_bond_site_symmetry_2
    _ccdc_geom_bond_type
    Zr13   O46       0.63869      .   S
    Zr33   O46       0.63869      .   S
    Zr13   O47       0.63718      .   S
    Zr31   O47       0.63718      .   S
    Zr8    O48       0.63869      .   S
    Zr24   O48       0.63869      .   S
    Zr8    O49       0.63855      .   S
    Zr22   O49       0.63855      .   S
    Zr11   O50       0.63855      .   S
    Zr29   O50       0.63855      .   S
    Zr11   O51       0.63857      .   S
    Zr27   O51       0.63857      .   S
    Zr33   O52       0.98699      .   S
    Zr2    O52       0.98699      .   S
    Zr24   O53       0.98678      .   S
    Zr2    O53       0.98678      .   S
    Zr31   O54       0.98772      .   S
    Zr1    O54       0.98772      .   S
    Zr22   O55       0.98591      .   S
    Zr0    O55       0.98591      .   S
    Zr29   O56       0.98583      .   S
    Zr0    O56       0.98583      .   S
    Zr27   O57       0.98591      .   S
    Zr1    O57       0.98591      .   S
    Zr2    O58       0.98672      .   S
    Zr26   O58       0.98672      .   S
    Zr0    O59       0.98350      .   S
    Zr20   O59       0.98350      .   S
    Zr0    O60       0.98600      .   S
    Zr32   O60       0.98600      .   S
    Zr1    O61       0.98591      .   S
    Zr23   O61       0.98591      .   S
    Zr20   O62       0.98353      .   S
    Zr3    O62       0.98353      .   S
    Zr26   O63       0.63869      .   S
    Zr10   O63       0.63869      .   S
    Zr32   O64       0.63855      .   S
    Zr12   O64       0.63855      .   S
    Zr23   O65       0.63854      .   S
    Zr9    O65       0.63854      .   S
    Zr3    O66       0.98614      .   S
    Zr28   O66       0.98614      .   S
    Zr3    O67       0.98599      .   S
    Zr30   O67       0.98599      .   S
    Zr3    O68       0.98585      .   S
    Zr25   O68       0.98585      .   S
    Zr10   O69       0.63787      .   S
    Zr28   O69       0.63787      .   S
    Zr12   O70       0.63855      .   S
    Zr30   O70       0.63855      .   S
    Zr9    O71       0.63857      .   S
    Zr25   O71       0.63857      .   S
    Zr42   O72       0.63857      .   S
    Zr18   O72       0.63857      .   S
    Zr42   O73       0.98585      .   S
    Zr7    O73       0.98585      .   S
    Zr37   O74       0.63856      .   S
    Zr15   O74       0.63856      .   S
    Zr37   O75       0.98598      .   S
    Zr7    O75       0.98598      .   S
    Zr40   O76       0.63852      .   S
    Zr16   O76       0.63852      .   S
    Zr40   O77       0.98598      .   S
    Zr7    O77       0.98598      .   S
    Zr15   O78       0.63855      .   S
    Zr35   O78       0.63855      .   S
    Zr18   O79       0.63854      .   S
    Zr44   O79       0.63854      .   S
    Zr16   O80       0.63869      .   S
    Zr38   O80       0.63869      .   S
    Zr7    O81       0.98353      .   S
    Zr21   O81       0.98353      .   S
    Zr44   O82       0.98591      .   S
    Zr4    O82       0.98591      .   S
    Zr35   O83       0.98600      .   S
    Zr5    O83       0.98600      .   S
    Zr38   O84       0.98670      .   S
    Zr6    O84       0.98670      .   S
    Zr21   O85       0.98351      .   S
    Zr5    O85       0.98351      .   S
    Zr4    O86       0.98591      .   S
    Zr41   O86       0.98591      .   S
    Zr4    O87       0.98623      .   S
    Zr34   O87       0.98623      .   S
    Zr5    O88       0.98583      .   S
    Zr39   O88       0.98583      .   S
    Zr5    O89       0.98591      .   S
    Zr43   O89       0.98591      .   S
    Zr6    O90       0.98683      .   S
    Zr45   O90       0.98683      .   S
    Zr6    O91       0.98704      .   S
    Zr36   O91       0.98704      .   S
    Zr41   O92       0.63856      .   S
    Zr17   O92       0.63856      .   S
    Zr39   O93       0.63856      .   S
    Zr17   O93       0.63856      .   S
    Zr34   O94       0.63859      .   S
    Zr14   O94       0.63859      .   S
    Zr43   O95       0.63855      .   S
    Zr19   O95       0.63855      .   S
    Zr45   O96       0.63870      .   S
    Zr19   O96       0.63870      .   S
    Zr36   O97       0.63868      .   S
    Zr14   O97       0.63868      .   S
    Zr20   O98       0.98362      .   S
    Zr1    O98       0.98362      .   S
    Zr20   O99       0.98421      .   S
    Zr2    O99       0.98421      .   S
    Zr21   O100      0.98362      .   S
    Zr4    O100      0.98362      .   S
    Zr21   O101      0.98413      .   S
    Zr6    O101      0.98413      .   S
    N102   O103      1.07380  1_455   S
    Zr19   O103      1.82176      .   S
    N102   O104      1.07387  1_556   S
    Zr8    O104      1.82183      .   S
    N105   O106      1.07338      .   S
    Zr18   O106      1.82112      .   S
    N105   O107      1.07338  1_565   S
    Zr9    O107      1.82112      .   S
    N108   O109      1.07338      .   S
    Zr17   O109      1.82109      .   S
    N108   O110      1.07337  1_556   S
    Zr11   O110      1.82108      .   S
    N111   O112      1.07280      .   S
    Zr12   O112      1.82061      .   S
    N111   O113      1.07415  1_455   S
    Zr15   O113      1.82196      .   S
    N114   O115      1.07406      .   S
    Zr14   O115      1.82218      .   S
    N114   O116      1.07393  1_566   S
    Zr13   O116      1.82249      .   S
    N117   O118      1.07378  1_565   S
    Zr10   O118      1.82174      .   S
    N117   O119      1.07378  1_455   S
    Zr16   O119      1.82175      .   S
