# CIF file generated by openbabel 2.4.90, see http://openbabel.sf.net
data_I
_chemical_name_common ''
_cell_length_a 15.096
_cell_length_b 16.337
_cell_length_c 16.337
_cell_angle_alpha 119.849
_cell_angle_beta 90.001
_cell_angle_gamma 90.001
_space_group_name_H-M_alt 'P 1'
_space_group_name_Hall 'P 1'
loop_
    _symmetry_equiv_pos_as_xyz
    x,y,z
loop_
    _atom_site_label
    _atom_site_type_symbol
    _atom_site_fract_x
    _atom_site_fract_y
    _atom_site_fract_z
    _atom_site_occupancy
    Y0      Y    0.56716   0.66703   0.33319   1.000
    Y1      Y    0.31724   0.33303   0.66686   1.000
    Y2      Y    0.81722   0.33303   0.66686   1.000
    Y3      Y    0.31724   0.66687   0.33303   1.000
    Y4      Y    0.81722   0.66687   0.33303   1.000
    Y5      Y    0.06717   0.33319   0.66703   1.000
    Y6      Y    0.56716   0.33319   0.66703   1.000
    Y7      Y    0.06717   0.66703   0.33319   1.000
    H8      H    0.03369   0.53284   0.40000   1.000
    H9      H    0.53367   0.53284   0.40000   1.000
    C10     C    0.47240   0.82494   0.47480   1.000
    C11     C    0.97238   0.82494   0.47480   1.000
    C12     C    0.47245   0.65050   0.17479   1.000
    C13     C    0.97244   0.65050   0.17479   1.000
    C14     C    0.47250   0.52524   0.34990   1.000
    C15     C    0.97248   0.52524   0.34990   1.000
    C16     C    0.22195   0.17518   0.52537   1.000
    C17     C    0.72194   0.17518   0.52537   1.000
    C18     C    0.22191   0.34958   0.82520   1.000
    C19     C    0.72189   0.34958   0.82520   1.000
    C20     C    0.22201   0.47478   0.65016   1.000
    C21     C    0.72200   0.47478   0.65016   1.000
    C22     C    0.22202   0.65018   0.47479   1.000
    C23     C    0.72200   0.65018   0.47479   1.000
    C24     C    0.22196   0.52537   0.17510   1.000
    C25     C    0.72194   0.52537   0.17510   1.000
    C26     C    0.22191   0.82521   0.34957   1.000
    C27     C    0.72190   0.82521   0.34957   1.000
    C28     C    0.47250   0.34990   0.52522   1.000
    C29     C    0.97249   0.34990   0.52522   1.000
    C30     C    0.47240   0.47481   0.82493   1.000
    C31     C    0.97239   0.47481   0.82493   1.000
    C32     C    0.47246   0.17480   0.65050   1.000
    C33     C    0.97244   0.17480   0.65000   1.000
    O34     O    0.43281   0.74476   0.44563   1.000
    O35     O    0.93279   0.74476   0.44563   1.000
    O36     O    0.04751   0.82690   0.44097   1.000
    O37     O    0.54749   0.82690   0.44097   1.000
    O38     O    0.43280   0.70163   0.25483   1.000
    O39     O    0.93279   0.70163   0.25483   1.000
    O40     O    0.04754   0.61483   0.17310   1.000
    O41     O    0.54752   0.61483   0.17310   1.000
    O42     O    0.43292   0.55434   0.29870   1.000
    O43     O    0.93290   0.55434   0.29870   1.000
    O44     O    0.04757   0.55913   0.38561   1.000
    O45     O    0.54756   0.55913   0.38561   1.000
    O46     O    0.18234   0.25526   0.55429   1.000
    O47     O    0.68233   0.25526   0.55429   1.000
    O48     O    0.29693   0.17330   0.55950   1.000
    O49     O    0.79691   0.17330   0.55950   1.000
    O50     O    0.18218   0.29832   0.74528   1.000
    O51     O    0.68217   0.29832   0.74528   1.000
    O52     O    0.29688   0.38540   0.82667   1.000
    O53     O    0.79687   0.38540   0.82667   1.000
    O54     O    0.18239   0.44593   0.70151   1.000
    O55     O    0.68237   0.44593   0.70151   1.000
    O56     O    0.29693   0.44054   0.61421   1.000
    O57     O    0.79691   0.44054   0.61421   1.000
    O58     O    0.18239   0.70152   0.44593   1.000
    O59     O    0.68237   0.70152   0.44593   1.000
    O60     O    0.29692   0.61421   0.44053   1.000
    O61     O    0.79691   0.61421   0.44050   1.000
    O62     O    0.18234   0.55430   0.25526   1.000
    O63     O    0.68233   0.55430   0.25526   1.000
    O64     O    0.29692   0.55951   0.17329   1.000
    O65     O    0.79691   0.55951   0.17329   1.000
    O66     O    0.18218   0.74529   0.29832   1.000
    O67     O    0.68217   0.74529   0.29832   1.000
    O68     O    0.29688   0.82668   0.38540   1.000
    O69     O    0.79687   0.82668   0.38540   1.000
    O70     O    0.43292   0.29871   0.55433   1.000
    O71     O    0.93290   0.29871   0.55433   1.000
    O72     O    0.04757   0.38562   0.55913   1.000
    O73     O    0.54756   0.38562   0.55913   1.000
    O74     O    0.43281   0.44563   0.74475   1.000
    O75     O    0.93279   0.44563   0.74475   1.000
    O76     O    0.04751   0.44097   0.82689   1.000
    O77     O    0.54749   0.44097   0.82600   1.000
    O78     O    0.43281   0.25483   0.70162   1.000
    O79     O    0.93279   0.25483   0.70162   1.000
    O80     O    0.04753   0.17319   0.61480   1.000
    O81     O    0.54752   0.17319   0.61480   1.000
    Og82    Og   0.45904   0.85491   0.49907   1.000
    Og83    Og   0.95902   0.85491   0.49907   1.000
    Og84    Og   0.45909   0.64463   0.14471   1.000
    Og85    Og   0.95907   0.64463   0.14471   1.000
    Og86    Og   0.45914   0.50098   0.35574   1.000
    Og87    Og   0.95912   0.50098   0.35574   1.000
    Og88    Og   0.20864   0.14519   0.50107   1.000
    Og89    Og   0.70862   0.14519   0.50107   1.000
    Og90    Og   0.20861   0.35545   0.85530   1.000
    Og91    Og   0.70859   0.35545   0.85530   1.000
    Og92    Og   0.20872   0.49908   0.64434   1.000
    Og93    Og   0.70870   0.49908   0.64435   1.000
    Og94    Og   0.20872   0.64436   0.49908   1.000
    Og95    Og   0.70870   0.64436   0.49908   1.000
    Og96    Og   0.20864   0.50107   0.14513   1.000
    Og97    Og   0.70862   0.50107   0.14513   1.000
    Og98    Og   0.20861   0.85531   0.35545   1.000
    Og99    Og   0.70859   0.85531   0.35545   1.000
    Og100   Og   0.45914   0.35574   0.50097   1.000
    Og101   Og   0.95912   0.35574   0.50097   1.000
    Og102   Og   0.45904   0.49908   0.85490   1.000
    Og103   Og   0.95902   0.49908   0.85490   1.000
    Og104   Og   0.45909   0.14472   0.64462   1.000
    Og105   Og   0.95907   0.14472   0.64429   1.000
loop_
    _geom_bond_atom_site_label_1
    _geom_bond_atom_site_label_2
    _geom_bond_distance
    _geom_bond_site_symmetry_2
    _ccdc_geom_bond_type
    O41    C12       1.26831      .   S
    O41    Y0        2.33132      .   S
    O40    C13       1.26873  1_455   S
    O40    Y7        2.33132      .   S
    O64    C24       1.26855      .   S
    O64    Y3        2.32901      .   S
    O65    C25       1.26855      .   S
    O65    Y4        2.32902      .   S
    C13    O39       1.29560      .   S
    C12    O38       1.29559      .   S
    C25    O63       1.29610      .   S
    C24    O62       1.29610      .   S
    O39    Y4        2.39170      .   S
    O38    Y3        2.39172      .   S
    O63    Y0        2.38791      .   S
    O62    Y7        2.38792      .   S
    O66    Y7        2.38714      .   S
    O66    C26       1.29501      .   S
    O67    Y0        2.38714      .   S
    O67    C27       1.29501      .   S
    O42    Y3        2.39111      .   S
    O42    C14       1.29567      .   S
    O43    Y4        2.39112      .   S
    O43    C15       1.29565      .   S
    Y3     O68       2.32801      .   S
    Y3     O60       2.32862      .   S
    Y3     O34       2.39095      .   S
    Y4     O69       2.32799      .   S
    Y4     O61       2.32817      .   S
    Y4     O35       2.39094      .   S
    Y0     O37       2.33067      .   S
    Y0     O59       2.38788      .   S
    Y7     O36       2.33067      .   S
    Y7     O58       2.38789      .   S
    C26    O68       1.26883      .   S
    C27    O69       1.26883      .   S
    C15    O44       1.26898  1_655   S
    C14    O45       1.26857      .   S
    O44    H8        0.61979      .   S
    O45    H9        0.61978      .   S
    O61    C23       1.26891      .   S
    O60    C22       1.26881      .   S
    O36    C11       1.26902  1_455   S
    O37    C10       1.26859      .   S
    O34    C10       1.29559      .   S
    O35    C11       1.29559      .   S
    O58    C22       1.29512      .   S
    O59    C23       1.29512      .   S
    C29    O71       1.29562      .   S
    C29    O72       1.26899  1_655   S
    C28    O70       1.29562      .   S
    C28    O73       1.26858      .   S
    C17    O47       1.29510      .   S
    C17    O49       1.26880      .   S
    C16    O46       1.29510      .   S
    C16    O48       1.26880      .   S
    O46    Y5        2.38787      .   S
    O47    Y6        2.38786      .   S
    O70    Y1        2.39119      .   S
    O71    Y2        2.39119      .   S
    O72    Y5        2.33053      .   S
    O73    Y6        2.33053      .   S
    O49    Y2        2.32893      .   S
    O48    Y1        2.32893      .   S
    O56    C20       1.26877      .   S
    O56    Y1        2.32867      .   S
    O57    C21       1.26876      .   S
    O57    Y2        2.32869      .   S
    O81    C32       1.26873      .   S
    O81    Y6        2.32993      .   S
    O80    C33       1.26550  1_455   S
    O80    Y5        2.32993      .   S
    C33    O79       1.29676      .   S
    C20    O54       1.29512      .   S
    C21    O55       1.29512      .   S
    C32    O78       1.29557      .   S
    Y2     O79       2.39174      .   S
    Y2     O75       2.39100      .   S
    Y2     O53       2.32793      .   S
    Y1     O78       2.39174      .   S
    Y1     O74       2.39100      .   S
    Y1     O52       2.32793      .   S
    Y6     O55       2.38786      .   S
    Y6     O51       2.38702      .   S
    Y6     O77       2.31979      .   S
    Y5     O54       2.38787      .   S
    Y5     O50       2.38703      .   S
    Y5     O76       2.33060      .   S
    O74    C30       1.29564      .   S
    O75    C31       1.29565      .   S
    O50    C18       1.29508      .   S
    O51    C19       1.29508      .   S
    C30    O77       1.26511      .   S
    C31    O76       1.26895  1_655   S
    C19    O53       1.26887      .   S
    C18    O52       1.26888      .   S
    O34    Y0        2.60352      .   S
    O35    Y7        2.60388  1_655   S
    O38    Y0        2.60611      .   S
    O39    Y7        2.60647  1_655   S
    O42    Y0        2.60397      .   S
    O43    Y7        2.60432  1_655   S
    O44    Y7        2.33047      .   S
    O45    Y0        2.33047      .   S
    O46    Y1        2.61093      .   S
    O47    Y2        2.61095      .   S
    O50    Y1        2.61588      .   S
    O51    Y2        2.61587      .   S
    O54    Y1        2.61289      .   S
    O55    Y2        2.61290      .   S
    O58    Y3        2.61291      .   S
    O59    Y4        2.61292      .   S
    O62    Y3        2.61097      .   S
    O63    Y4        2.61099      .   S
    O66    Y3        2.61592      .   S
    O67    Y4        2.61591      .   S
    O70    Y6        2.60408      .   S
    O71    Y5        2.60443  1_655   S
    O74    Y6        2.60354      .   S
    O75    Y5        2.60389  1_655   S
    O78    Y6        2.60607      .   S
    O79    Y5        2.60642  1_655   S
    C10    Og82      0.49440      .   S
    C11    Og83      0.49440      .   S
    C12    Og84      0.49440      .   S
    C13    Og85      0.49439      .   S
    C14    Og86      0.49440      .   S
    C15    Og87      0.49441      .   S
    C16    Og88      0.49439      .   S
    C17    Og89      0.49439      .   S
    C18    Og90      0.49440      .   S
    C19    Og91      0.49440      .   S
    C20    Og92      0.49440      .   S
    C21    Og93      0.49439      .   S
    C22    Og94      0.49436      .   S
    C23    Og95      0.49439      .   S
    C24    Og96      0.49416      .   S
    C25    Og97      0.49416      .   S
    C26    Og98      0.49441      .   S
    C27    Og99      0.49441      .   S
    C28    Og100     0.49441      .   S
    C29    Og101     0.49441      .   S
    C30    Og102     0.49439      .   S
    C31    Og103     0.49439      .   S
    C32    Og104     0.49441      .   S
    C33    Og105     0.49524      .   S
