# CIF file generated by openbabel 2.4.90, see http://openbabel.sf.net
data_I
_chemical_name_common ''
_cell_length_a 13.449
_cell_length_b 13.571
_cell_length_c 13.962
_cell_angle_alpha 77.615
_cell_angle_beta 65.011
_cell_angle_gamma 63.881
_space_group_name_H-M_alt 'P 1'
_space_group_name_Hall 'P 1'
loop_
    _symmetry_equiv_pos_as_xyz
    x,y,z
loop_
    _atom_site_label
    _atom_site_type_symbol
    _atom_site_fract_x
    _atom_site_fract_y
    _atom_site_fract_z
    _atom_site_occupancy
    La0     La   0.51951   0.92088   0.66191   1.000
    La1     La   0.48051   0.07907   0.33808   1.000
    Cl2     Cl   0.63130   0.89835   0.43045   1.000
    Cl3     Cl   0.42852   0.15559   0.15617   1.000
    Cl4     Cl   0.57693   0.21042   0.36170   1.000
    Cl5     Cl   0.36862   0.10147   0.56955   1.000
    Cl6     Cl   0.57161   0.84439   0.84375   1.000
    Cl7     Cl   0.42311   0.78943   0.63841   1.000
loop_
    _geom_bond_atom_site_label_1
    _geom_bond_atom_site_label_2
    _geom_bond_distance
    _geom_bond_site_symmetry_2
    _ccdc_geom_bond_type
    Cl3    La1       2.78344      .   S
    La1    Cl4       2.75991      .   S
    La1    Cl2       2.87483  1_545   S
    Cl5    La0       2.87467  1_545   S
    Cl7    La0       2.76009      .   S
    La0    Cl6       2.78320      .   S
