# CIF file generated by openbabel 2.4.90, see http://openbabel.sf.net
data_I
_chemical_name_common ''
_cell_length_a 13.144
_cell_length_b 13.013
_cell_length_c 23.511
_cell_angle_alpha 90
_cell_angle_beta 90
_cell_angle_gamma 90
_space_group_name_H-M_alt 'P 1'
_space_group_name_Hall 'P 1'
loop_
    _symmetry_equiv_pos_as_xyz
    x,y,z
loop_
    _atom_site_label
    _atom_site_type_symbol
    _atom_site_fract_x
    _atom_site_fract_y
    _atom_site_fract_z
    _atom_site_occupancy
    N0      N    0.50000   0.50001   0.74914   1.000
    N1      N    0.50000   0.50001   0.25083   1.000
    Zr2     Zr   0.00000   0.50002   0.49999   1.000
    O3      O    0.13864   0.47679   0.56985   1.000
    O4      O    0.86132   0.47678   0.56983   1.000
    O5      O    0.86136   0.47679   0.43013   1.000
    O6      O    0.13868   0.47678   0.43014   1.000
    O7      O    0.86136   0.52324   0.56985   1.000
    O8      O    0.86132   0.52325   0.43014   1.000
    O9      O    0.13864   0.52324   0.43013   1.000
    O10     O    0.13868   0.52325   0.56984   1.000
    Zr11    Zr   0.50000   0.00000   0.00000   1.000
    O12     O    0.47709   0.86123   0.92969   1.000
    O13     O    0.47709   0.13878   0.92969   1.000
    O14     O    0.47709   0.13878   0.07030   1.000
    O15     O    0.47709   0.86123   0.07030   1.000
    O16     O    0.52291   0.86123   0.07030   1.000
    O17     O    0.52291   0.13878   0.07030   1.000
    O18     O    0.52291   0.86123   0.92969   1.000
    O19     O    0.52291   0.13878   0.92969   1.000
loop_
    _geom_bond_atom_site_label_1
    _geom_bond_atom_site_label_2
    _geom_bond_distance
    _geom_bond_site_symmetry_2
    _ccdc_geom_bond_type
    Zr2    O3        2.47183      .   S
    N0     O3        6.35765      .   S
    Zr2    O4        2.47188  1_455   S
    N0     O4        6.35763      .   S
    Zr2    O5        2.47186  1_455   S
    N1     O5        6.35774      .   S
    Zr2    O6        2.47204      .   S
    N1     O6        6.35756      .   S
    Zr2    O7        2.47182  1_455   S
    N0     O7        6.35766      .   S
    Zr2    O8        2.47204  1_455   S
    N1     O8        6.35758      .   S
    Zr2    O9        2.47184      .   S
    N1     O9        6.35773      .   S
    Zr2    O10       2.47201      .   S
    N0     O10       6.35750      .   S
    Zr11   O12       2.46652  1_544   S
    N0     O12       6.34079      .   S
    Zr11   O13       2.46662  1_554   S
    N0     O13       6.34095      .   S
    Zr11   O14       2.46646      .   S
    N1     O14       6.34066      .   S
    Zr11   O15       2.46639  1_545   S
    N1     O15       6.34053      .   S
    Zr11   O16       2.46639  1_545   S
    N1     O16       6.34053      .   S
    Zr11   O17       2.46647      .   S
    N1     O17       6.34066      .   S
    Zr11   O18       2.46653  1_544   S
    N0     O18       6.34079      .   S
    Zr11   O19       2.46662  1_554   S
    N0     O19       6.34095      .   S
