# CIF file generated by openbabel 2.4.90, see http://openbabel.sf.net
data_I
_chemical_name_common ''
_cell_length_a 6.8215
_cell_length_b 9.31303
_cell_length_c 10.182
_cell_angle_alpha 67.1916
_cell_angle_beta 81.405
_cell_angle_gamma 73.3754
_space_group_name_H-M_alt 'P 1'
_space_group_name_Hall 'P 1'
loop_
    _symmetry_equiv_pos_as_xyz
    x,y,z
loop_
    _atom_site_label
    _atom_site_type_symbol
    _atom_site_fract_x
    _atom_site_fract_y
    _atom_site_fract_z
    _atom_site_occupancy
    Zr0     Zr   0.24475   0.45511   0.11792   1.000
    Zr1     Zr   0.75536   0.54482   0.88208   1.000
    N2      N    0.24764   0.76112   0.50191   1.000
    N3      N    0.75250   0.23879   0.49809   1.000
    C4      C    0.25582   0.17461   0.39653   1.000
    O5      O    0.25405   0.02984   0.42841   1.000
    O6      O    0.25384   0.24528   0.29269   1.000
    C7      C    0.22817   0.58246   0.28060   1.000
    O8      O    0.23436   0.64295   0.35541   1.000
    C9      C    0.74431   0.82531   0.60347   1.000
    O10     O    0.74628   0.75464   0.70730   1.000
    O11     O    0.74608   0.97008   0.57159   1.000
    C12     C    0.74536   0.43532   0.14839   1.000
    O13     O    0.58712   0.43150   0.13469   1.000
    O14     O    0.90311   0.45486   0.13574   1.000
    O15     O    0.74777   0.36941   0.26666   1.000
    C16     C    0.77191   0.41747   0.71941   1.000
    O17     O    0.76574   0.35698   0.64460   1.000
    C18     C    0.25476   0.56462   0.85161   1.000
    O19     O    0.09700   0.54508   0.86426   1.000
    O20     O    0.41300   0.56843   0.86532   1.000
    O21     O    0.25236   0.63051   0.73334   1.000
    O22     O    0.23211   0.54771   0.23650   1.000
    O23     O    0.74777   0.46561   0.07626   1.000
    O24     O    0.76797   0.45222   0.76350   1.000
    O25     O    0.25235   0.53433   0.92375   1.000
loop_
    _geom_bond_atom_site_label_1
    _geom_bond_atom_site_label_2
    _geom_bond_distance
    _geom_bond_site_symmetry_2
    _ccdc_geom_bond_type
    C4     O5        1.26183      .   S
    N2     O5        2.32929  1_565   S
    C4     O6        1.00540      .   S
    Zr0    O6        2.06323      .   S
    C7     O8        1.12041      .   S
    N2     O8        2.19427      .   S
    C9     O10       1.00541      .   S
    Zr1    O10       2.06323      .   S
    C9     O11       1.26183      .   S
    N3     O11       2.32928  1_545   S
    C12    O13       1.12101      .   S
    Zr0    O13       2.30827      .   S
    C12    O14       1.12261      .   S
    Zr0    O14       2.31097  1_455   S
    C12    O15       1.11992      .   S
    N3     O15       2.19349      .   S
    C16    O17       1.12042      .   S
    N3     O17       2.19429      .   S
    C18    O19       1.12263      .   S
    Zr1    O19       2.31100  1_655   S
    C18    O20       1.12099      .   S
    Zr1    O20       2.30822      .   S
    C18    O21       1.11993      .   S
    N2     O21       2.19351      .   S
    C7     O22       0.64114      .   S
    Zr0    O22       1.71536      .   S
    Zr1    O23       1.82104  1_556   S
    C12    O23       0.67656      .   S
    Zr1    O24       1.71541      .   S
    C16    O24       0.64115      .   S
    Zr0    O25       1.82101  1_554   S
    C18    O25       0.67656      .   S
