# CIF file generated by openbabel 2.4.90, see http://openbabel.sf.net
data_I
_chemical_name_common ''
_cell_length_a 14.364
_cell_length_b 12.417
_cell_length_c 20.761
_cell_angle_alpha 90
_cell_angle_beta 90
_cell_angle_gamma 90.051
_space_group_name_H-M_alt 'P 1'
_space_group_name_Hall 'P 1'
loop_
    _symmetry_equiv_pos_as_xyz
    x,y,z
loop_
    _atom_site_label
    _atom_site_type_symbol
    _atom_site_fract_x
    _atom_site_fract_y
    _atom_site_fract_z
    _atom_site_occupancy
    Zr0     Zr   0.12528   0.33380   0.24999   1.000
    Zr1     Zr   0.62533   0.33380   0.24999   1.000
    Zr2     Zr   0.12485   0.83402   0.74998   1.000
    Zr3     Zr   0.62468   0.83384   0.74998   1.000
    Zr4     Zr   0.37464   0.66623   0.74998   1.000
    Zr5     Zr   0.87469   0.66622   0.74998   1.000
    Zr6     Zr   0.37529   0.16618   0.24999   1.000
    Zr7     Zr   0.87512   0.16600   0.24999   1.000
    Zr8     Zr   0.18714   0.42272   0.33652   1.000
    Zr9     Zr   0.68739   0.42249   0.33660   1.000
    Zr10    Zr   0.06306   0.92288   0.66300   1.000
    Zr11    Zr   0.56281   0.92256   0.66338   1.000
    Zr12    Zr   0.31258   0.57753   0.83659   1.000
    Zr13    Zr   0.81283   0.57730   0.83651   1.000
    Zr14    Zr   0.43715   0.07746   0.16330   1.000
    Zr15    Zr   0.93691   0.07714   0.16340   1.000
    Zr16    Zr   0.31258   0.57753   0.66337   1.000
    Zr17    Zr   0.81283   0.57730   0.66345   1.000
    Zr18    Zr   0.43715   0.07746   0.33600   1.000
    Zr19    Zr   0.93691   0.07714   0.33658   1.000
    Zr20    Zr   0.18714   0.42272   0.16346   1.000
    Zr21    Zr   0.68738   0.42249   0.16338   1.000
    Zr22    Zr   0.06306   0.92288   0.83657   1.000
    Zr23    Zr   0.56281   0.92256   0.83650   1.000
    Zr24    Zr   0.44891   0.35040   0.24999   1.000
    Zr25    Zr   0.94883   0.35013   0.24999   1.000
    Zr26    Zr   0.30128   0.85043   0.74998   1.000
    Zr27    Zr   0.80114   0.85035   0.74998   1.000
    Zr28    Zr   0.05114   0.64990   0.74998   1.000
    Zr29    Zr   0.55106   0.64962   0.74998   1.000
    Zr30    Zr   0.19883   0.14967   0.24999   1.000
    Zr31    Zr   0.69869   0.14960   0.24999   1.000
    O32     O    0.40622   0.12182   0.20664   1.000
    O33     O    0.65635   0.37814   0.20668   1.000
    O34     O    0.90601   0.12157   0.20669   1.000
    O35     O    0.15621   0.37826   0.20672   1.000
    O36     O    0.16205   0.24174   0.24999   1.000
    O37     O    0.91197   0.25806   0.24999   1.000
    O38     O    0.41210   0.25829   0.24999   1.000
    O39     O    0.66201   0.24170   0.24999   1.000
    O40     O    0.65636   0.37814   0.29329   1.000
    O41     O    0.15621   0.37826   0.29325   1.000
    O42     O    0.40622   0.12182   0.29300   1.000
    O43     O    0.90601   0.12157   0.29328   1.000
    O44     O    0.09395   0.87845   0.70649   1.000
    O45     O    0.34361   0.62188   0.70668   1.000
    O46     O    0.59375   0.87820   0.70668   1.000
    O47     O    0.84376   0.62176   0.70671   1.000
    O48     O    0.08799   0.74196   0.74998   1.000
    O49     O    0.09395   0.87845   0.79328   1.000
    O50     O    0.83791   0.75829   0.74998   1.000
    O51     O    0.84376   0.62176   0.79324   1.000
    O52     O    0.33796   0.75833   0.74998   1.000
    O53     O    0.34361   0.62188   0.79328   1.000
    O54     O    0.58787   0.74173   0.74998   1.000
    O55     O    0.59375   0.87820   0.79324   1.000
    N56     N    0.83580   0.40869   0.99840   1.000
    O57     O    0.77483   0.39010   0.06778   1.000
    O58     O    0.84808   0.47863   0.92966   1.000
    N59     N    0.58568   0.09134   0.99844   1.000
    O60     O    0.52467   0.10990   0.06778   1.000
    O61     O    0.59800   0.02137   0.92970   1.000
    N62     N    0.91427   0.90841   0.49862   1.000
    O63     O    0.97538   0.89012   0.56783   1.000
    O64     O    0.90186   0.97838   0.42984   1.000
    N65     N    0.91427   0.90841   0.00135   1.000
    O66     O    0.90186   0.97838   0.07013   1.000
    O67     O    0.97538   0.89012   0.93203   1.000
    N68     N    0.33553   0.40883   0.99851   1.000
    O69     O    0.34780   0.47878   0.92975   1.000
    O70     O    0.27457   0.39028   0.06789   1.000
    N71     N    0.66444   0.59119   0.00139   1.000
    O72     O    0.72540   0.60975   0.93182   1.000
    O73     O    0.65216   0.52124   0.07019   1.000
    N74     N    0.41428   0.90842   0.00152   1.000
    O75     O    0.40196   0.97852   0.07023   1.000
    O76     O    0.47530   0.88999   0.93215   1.000
    N77     N    0.16417   0.59133   0.00156   1.000
    O78     O    0.22514   0.60992   0.93218   1.000
    O79     O    0.15189   0.52139   0.07031   1.000
    N80     N    0.66444   0.59119   0.49851   1.000
    O81     O    0.65217   0.52124   0.42976   1.000
    O82     O    0.72540   0.60975   0.56789   1.000
    N83     N    0.08569   0.09136   0.99862   1.000
    O84     O    0.02458   0.10978   0.06794   1.000
    O85     O    0.09811   0.02151   0.92984   1.000
    N86     N    0.58568   0.09134   0.50152   1.000
    O87     O    0.59800   0.02137   0.57025   1.000
    O88     O    0.52467   0.10990   0.43202   1.000
    N89     N    0.16417   0.59133   0.49840   1.000
    O90     O    0.15189   0.52139   0.42966   1.000
    O91     O    0.22514   0.60992   0.56777   1.000
    N92     N    0.83580   0.40869   0.50150   1.000
    O93     O    0.84808   0.47863   0.57027   1.000
    O94     O    0.77483   0.39010   0.43216   1.000
    N95     N    0.08569   0.09136   0.50135   1.000
    O96     O    0.09811   0.02151   0.57002   1.000
    O97     O    0.02458   0.10978   0.43204   1.000
    N98     N    0.41428   0.90842   0.49844   1.000
    O99     O    0.47530   0.88999   0.56780   1.000
    O100    O    0.40196   0.97852   0.42957   1.000
    N101    N    0.33553   0.40883   0.50145   1.000
    O102    O    0.34780   0.47878   0.57021   1.000
    O103    O    0.27457   0.39028   0.43208   1.000
loop_
    _geom_bond_atom_site_label_1
    _geom_bond_atom_site_label_2
    _geom_bond_distance
    _geom_bond_site_symmetry_2
    _ccdc_geom_bond_type
    Zr14   O32       1.14502      .   S
    Zr6    O32       1.14502      .   S
    Zr21   O33       1.14445      .   S
    Zr1    O33       1.14445      .   S
    Zr15   O34       1.14442      .   S
    Zr7    O34       1.14442      .   S
    Zr20   O35       1.14389      .   S
    Zr0    O35       1.14389      .   S
    Zr30   O36       1.25973      .   S
    Zr0    O36       1.25973      .   S
    Zr25   O37       1.25932      .   S
    Zr7    O37       1.25932      .   S
    Zr24   O38       1.25962      .   S
    Zr6    O38       1.25962      .   S
    Zr1    O39       1.25957      .   S
    Zr31   O39       1.25957      .   S
    Zr1    O40       1.14446      .   S
    Zr9    O40       1.14446      .   S
    Zr0    O41       1.14389      .   S
    Zr8    O41       1.14389      .   S
    Zr6    O42       1.13949      .   S
    Zr18   O42       1.13949      .   S
    Zr7    O43       1.14442      .   S
    Zr19   O43       1.14442      .   S
    Zr10   O44       1.14761      .   S
    Zr2    O44       1.14761      .   S
    Zr16   O45       1.14445      .   S
    Zr4    O45       1.14445      .   S
    Zr11   O46       1.14429      .   S
    Zr3    O46       1.14429      .   S
    Zr17   O47       1.14389      .   S
    Zr5    O47       1.14389      .   S
    Zr2    O48       1.25931      .   S
    Zr28   O48       1.25931      .   S
    Zr2    O49       1.14442      .   S
    Zr22   O49       1.14442      .   S
    Zr5    O50       1.25973      .   S
    Zr27   O50       1.25973      .   S
    Zr5    O51       1.14389      .   S
    Zr13   O51       1.14389      .   S
    Zr4    O52       1.25957      .   S
    Zr26   O52       1.25957      .   S
    Zr4    O53       1.14445      .   S
    Zr12   O53       1.14445      .   S
    Zr3    O54       1.25962      .   S
    Zr29   O54       1.25962      .   S
    Zr3    O55       1.14364      .   S
    Zr23   O55       1.14364      .   S
    N56    O57       1.70145  1_556   S
    Zr21   O57       2.38311      .   S
    N56    O58       1.67986      .   S
    Zr13   O58       2.34480      .   S
    N59    O60       1.70109  1_556   S
    Zr14   O60       2.38206      .   S
    N59    O61       1.68032      .   S
    Zr23   O61       2.34593  1_565   S
    N62    O63       1.69924      .   S
    Zr10   O63       2.37784  1_455   S
    N62    O64       1.68100      .   S
    Zr19   O64       2.34628  1_545   S
    N65    O66       1.68111      .   S
    Zr15   O66       2.34639  1_545   S
    N65    O67       1.70102  1_554   S
    Zr22   O67       2.38296  1_455   S
    N68    O69       1.68023      .   S
    Zr12   O69       2.34546      .   S
    N68    O70       1.70119  1_556   S
    Zr20   O70       2.38268      .   S
    N71    O72       1.70451  1_554   S
    Zr13   O72       2.37826      .   S
    N71    O73       1.68082      .   S
    Zr21   O73       2.34603      .   S
    N74    O75       1.68044      .   S
    Zr14   O75       2.34464  1_545   S
    N74    O76       1.70158  1_554   S
    Zr23   O76       2.38449      .   S
    N77    O78       1.70133  1_554   S
    Zr12   O78       2.38300      .   S
    N77    O79       1.67998      .   S
    Zr20   O79       2.34491      .   S
    N80    O81       1.68015      .   S
    Zr9    O81       2.34538      .   S
    N80    O82       1.70109      .   S
    Zr17   O82       2.38259      .   S
    N83    O84       1.70125  1_556   S
    Zr15   O84       2.38271  1_655   S
    N83    O85       1.68026      .   S
    Zr22   O85       2.34554  1_565   S
    N86    O87       1.67992      .   S
    Zr11   O87       2.34487  1_565   S
    N86    O88       1.70394      .   S
    Zr18   O88       2.39075      .   S
    N89    O90       1.67979      .   S
    Zr8    O90       2.34474      .   S
    N89    O91       1.70116      .   S
    Zr16   O91       2.38317      .   S
    N92    O93       1.68039      .   S
    Zr17   O93       2.34531      .   S
    N92    O94       1.70074      .   S
    Zr9    O94       2.38241      .   S
    N95    O96       1.67839      .   S
    Zr10   O96       2.34055  1_565   S
    N95    O97       1.70114      .   S
    Zr19   O97       2.38260  1_655   S
    N98    O99       1.70116      .   S
    Zr11   O99       2.38340      .   S
    N98    O100      1.68333      .   S
    Zr18   O100      2.35326  1_545   S
    N101   O102      1.68025      .   S
    Zr16   O102      2.34548      .   S
    N101   O103      1.70100      .   S
    Zr8    O103      2.38249      .   S
