# CIF file generated by openbabel 2.4.90, see http://openbabel.sf.net
data_I
_chemical_name_common ''
_cell_length_a 15.554
_cell_length_b 14.514
_cell_length_c 15.025
_cell_angle_alpha 80.01
_cell_angle_beta 74.318
_cell_angle_gamma 77.467
_space_group_name_H-M_alt 'P 1'
_space_group_name_Hall 'P 1'
loop_
    _symmetry_equiv_pos_as_xyz
    x,y,z
loop_
    _atom_site_label
    _atom_site_type_symbol
    _atom_site_fract_x
    _atom_site_fract_y
    _atom_site_fract_z
    _atom_site_occupancy
    C0      C    0.33093   0.05616   0.50882   1.000
    C1      C    0.93606   0.67629   0.49162   1.000
    C2      C    0.51935   0.32199   0.06165   1.000
    C3      C    0.47029   0.93442   0.67108   1.000
    C4      C    0.05238   0.50661   0.32295   1.000
    C5      C    0.67071   0.49117   0.94529   1.000
    C6      C    0.66859   0.94102   0.49188   1.000
    C7      C    0.06330   0.32121   0.51190   1.000
    C8      C    0.47991   0.67483   0.93889   1.000
    C9      C    0.52917   0.06308   0.32976   1.000
    C10     C    0.94631   0.49114   0.68090   1.000
    C11     C    0.32805   0.50665   0.05840   1.000
