# CIF file generated by openbabel 2.4.90, see http://openbabel.sf.net
data_I
_chemical_name_common ''
_cell_length_a 6.378
_cell_length_b 12.29
_cell_length_c 15.5126
_cell_angle_alpha 89.9841
_cell_angle_beta 78.4341
_cell_angle_gamma 89.976
_space_group_name_H-M_alt 'P 1'
_space_group_name_Hall 'P 1'
loop_
    _symmetry_equiv_pos_as_xyz
    x,y,z
loop_
    _atom_site_label
    _atom_site_type_symbol
    _atom_site_fract_x
    _atom_site_fract_y
    _atom_site_fract_z
    _atom_site_occupancy
    Zr0     Zr   0.70270   0.04745   0.05880   1.000
    Zr1     Zr   0.29696   0.54761   0.44134   1.000
    Zr2     Zr   0.29689   0.95246   0.94134   1.000
    Zr3     Zr   0.70288   0.45253   0.55868   1.000
    N4      N    0.12850   0.73605   0.76445   1.000
    O5      O    0.23834   0.65526   0.63515   1.000
    O6      O    0.33982   0.63149   0.66449   1.000
    O7      O    0.89456   0.63027   0.68856   1.000
    O8      O    0.29847   0.82245   0.83974   1.000
    O9      O    0.96788   0.86050   0.88497   1.000
    O10     O    0.11642   0.83675   0.85560   1.000
    N11     N    0.12847   0.76408   0.26437   1.000
    O12     O    0.11629   0.66336   0.35556   1.000
    O13     O    0.96777   0.63958   0.38489   1.000
    O14     O    0.29841   0.67774   0.33967   1.000
    O15     O    0.23831   0.84491   0.13514   1.000
    O16     O    0.33977   0.86866   0.16450   1.000
    O17     O    0.89456   0.86975   0.18855   1.000
    N18     N    0.87154   0.26407   0.23574   1.000
    O19     O    0.10537   0.36982   0.31152   1.000
    O20     O    0.76157   0.34507   0.36492   1.000
    O21     O    0.66009   0.36884   0.33558   1.000
    O22     O    0.88363   0.16333   0.14454   1.000
    O23     O    0.03218   0.13958   0.11517   1.000
    O24     O    0.70149   0.17766   0.16045   1.000
    N25     N    0.87149   0.23613   0.73575   1.000
    O26     O    0.70152   0.32246   0.66039   1.000
    O27     O    0.76139   0.15525   0.86502   1.000
    O28     O    0.65994   0.13150   0.83566   1.000
    O29     O    0.03208   0.36055   0.61517   1.000
    O30     O    0.88356   0.33678   0.64451   1.000
    O31     O    0.10544   0.13028   0.81151   1.000
loop_
    _geom_bond_atom_site_label_1
    _geom_bond_atom_site_label_2
    _geom_bond_distance
    _geom_bond_site_symmetry_2
    _ccdc_geom_bond_type
    N4     O5        2.22182      .   S
    Zr1    O5        3.23736      .   S
    N4     O6        2.24365      .   S
    Zr3    O6        3.37151      .   S
    N4     O7        2.45135  1_455   S
    Zr3    O7        3.36420      .   S
    N4     O8        2.04354      .   S
    Zr2    O8        2.24340      .   S
    N4     O9        2.47312  1_455   S
    Zr0    O9        3.68548  1_544   S
    N4     O10       1.86933      .   S
    Zr2    O10       2.39430      .   S
    N11    O12       1.86926      .   S
    Zr1    O12       2.39474      .   S
    N11    O13       2.47347  1_455   S
    Zr3    O13       3.68525      .   S
    N11    O14       2.04230      .   S
    Zr1    O14       2.24459      .   S
    N11    O15       2.22108      .   S
    Zr2    O15       3.23610  1_556   S
    N11    O16       2.24312      .   S
    Zr0    O16       3.36985  1_545   S
    N11    O17       2.44888  1_455   S
    Zr0    O17       3.36182  1_545   S
    N18    O19       2.44966  1_655   S
    Zr1    O19       3.36377      .   S
    N18    O20       2.22162      .   S
    Zr3    O20       3.23574      .   S
    N18    O21       2.24450      .   S
    Zr1    O21       3.36999      .   S
    N18    O22       1.87012      .   S
    Zr0    O22       2.39723      .   S
    N18    O23       2.47389  1_655   S
    Zr2    O23       3.68579  1_566   S
    N18    O24       2.04391      .   S
    Zr0    O24       2.24585      .   S
    N25    O26       2.04309      .   S
    Zr3    O26       2.24443      .   S
    N25    O27       2.22198      .   S
    Zr0    O27       3.23699  1_554   S
    N25    O28       2.24449      .   S
    Zr2    O28       3.37213  1_565   S
    N25    O29       2.47333  1_655   S
    Zr1    O29       3.68568      .   S
    N25    O30       1.86942      .   S
    Zr3    O30       2.39521      .   S
    N25    O31       2.44963  1_655   S
    Zr2    O31       3.36226  1_565   S
