# CIF file generated by openbabel 2.4.90, see http://openbabel.sf.net
data_I
_chemical_name_common ''
_cell_length_a 13.219
_cell_length_b 14.33
_cell_length_c 14.337
_cell_angle_alpha 77.767
_cell_angle_beta 62.589
_cell_angle_gamma 62.647
_space_group_name_H-M_alt 'P 1'
_space_group_name_Hall 'P 1'
loop_
    _symmetry_equiv_pos_as_xyz
    x,y,z
loop_
    _atom_site_label
    _atom_site_type_symbol
    _atom_site_fract_x
    _atom_site_fract_y
    _atom_site_fract_z
    _atom_site_occupancy
    Zr0     Zr   0.39293   0.24978   0.71464   1.000
    Zr1     Zr   0.85701   0.25001   0.78555   1.000
    Zr2     Zr   0.60697   0.28551   0.75000   1.000
    Zr3     Zr   0.14297   0.21461   0.74996   1.000
    Zr4     Zr   0.60708   0.75019   0.28530   1.000
    Zr5     Zr   0.14295   0.75003   0.21445   1.000
    Zr6     Zr   0.39306   0.71449   0.24987   1.000
    Zr7     Zr   0.85697   0.78541   0.25010   1.000
    N8      N    0.49998   0.99999   0.50002   1.000
    O9      O    0.54718   0.90247   0.41457   1.000
    O10     O    0.36438   0.08537   0.59759   1.000
    O11     O    0.45279   0.09751   0.58544   1.000
    O12     O    0.63558   0.91463   0.40245   1.000
    N13     N    0.49999   0.50001   1.00000   1.000
    O14     O    0.36439   0.59761   0.08533   1.000
    O15     O    0.45283   0.58539   0.09754   1.000
    O16     O    0.63559   0.40241   0.91468   1.000
    O17     O    0.54716   0.41461   0.90243   1.000
    N18     N    0.50001   0.49999   0.49997   1.000
    O19     O    0.53803   0.41462   0.59756   1.000
    O20     O    0.46198   0.58536   0.40236   1.000
    O21     O    0.46192   0.40234   0.58541   1.000
    O22     O    0.53808   0.59764   0.41455   1.000
    N23     N    0.99998   0.99999   1.00000   1.000
    O24     O    0.94961   0.09760   0.91464   1.000
    O25     O    0.94958   0.91459   0.09763   1.000
    O26     O    0.05036   0.90240   0.08536   1.000
    O27     O    0.05038   0.08541   0.90238   1.000
loop_
    _geom_bond_atom_site_label_1
    _geom_bond_atom_site_label_2
    _geom_bond_distance
    _geom_bond_site_symmetry_2
    _ccdc_geom_bond_type
    N8     O9        1.75031      .   S
    Zr4    O9        2.75667      .   S
    N8     O10       1.75157  1_565   S
    Zr3    O10       2.75943      .   S
    N8     O11       1.75003  1_565   S
    Zr0    O11       2.75586      .   S
    N8     O12       1.75149      .   S
    Zr7    O12       2.75920      .   S
    N13    O14       1.75160  1_556   S
    Zr5    O14       2.75953      .   S
    N13    O15       1.75014  1_556   S
    Zr6    O15       2.75614      .   S
    N13    O16       1.75150      .   S
    Zr1    O16       2.75934      .   S
    N13    O17       1.75048      .   S
    Zr2    O17       2.75715      .   S
    N18    O19       1.75039      .   S
    Zr2    O19       2.75704      .   S
    N18    O20       1.75068      .   S
    Zr6    O20       2.75754      .   S
    N18    O21       1.75078      .   S
    Zr0    O21       2.75749      .   S
    N18    O22       1.75065      .   S
    Zr4    O22       2.75745      .   S
    N23    O24       1.75116  1_565   S
    Zr1    O24       2.75854      .   S
    N23    O25       1.75096  1_556   S
    Zr7    O25       2.75818      .   S
    N23    O26       1.75107  1_656   S
    Zr5    O26       2.75834      .   S
    N23    O27       1.75087  1_665   S
    Zr3    O27       2.75797      .   S
