# CIF file generated by openbabel 2.4.90, see http://openbabel.sf.net
data_I
_chemical_name_common ''
_cell_length_a 15.428
_cell_length_b 20.134
_cell_length_c 17.805
_cell_angle_alpha 89.98
_cell_angle_beta 89.987
_cell_angle_gamma 89.995
_space_group_name_H-M_alt 'P 1'
_space_group_name_Hall 'P 1'
loop_
    _symmetry_equiv_pos_as_xyz
    x,y,z
loop_
    _atom_site_label
    _atom_site_type_symbol
    _atom_site_fract_x
    _atom_site_fract_y
    _atom_site_fract_z
    _atom_site_occupancy
    H0      H    0.28804   0.22722   0.31626   1.000
    H1      H    0.28805   0.72724   0.31629   1.000
    H2      H    0.78801   0.22719   0.31621   1.000
    H3      H    0.78804   0.72721   0.31620   1.000
    H4      H    0.02516   0.23431   0.37674   1.000
    H5      H    0.02515   0.73431   0.37673   1.000
    H6      H    0.52515   0.23433   0.37676   1.000
    H7      H    0.52517   0.73431   0.37675   1.000
    H8      H    0.46196   0.27273   0.81596   1.000
    H9      H    0.46194   0.77272   0.81590   1.000
    H10     H    0.96189   0.27270   0.81600   1.000
    H11     H    0.96189   0.77269   0.81603   1.000
    H12     H    0.22451   0.26574   0.87724   1.000
    H13     H    0.22452   0.76575   0.87723   1.000
    H14     H    0.72455   0.26571   0.87720   1.000
    H15     H    0.72454   0.76573   0.87720   1.000
    H16     H    0.21214   0.47715   0.68388   1.000
    H17     H    0.21210   0.97718   0.68380   1.000
    H18     H    0.71210   0.47714   0.68390   1.000
    H19     H    0.71208   0.97716   0.68387   1.000
    H20     H    0.47499   0.48437   0.62332   1.000
    H21     H    0.47499   0.98434   0.62338   1.000
    H22     H    0.97495   0.48435   0.62333   1.000
    H23     H    0.97494   0.98437   0.62332   1.000
    H24     H    0.03812   0.02266   0.18394   1.000
    H25     H    0.03812   0.52266   0.18394   1.000
    H26     H    0.53814   0.02264   0.18390   1.000
    H27     H    0.53812   0.52267   0.18394   1.000
    H28     H    0.27555   0.01574   0.12264   1.000
    H29     H    0.27554   0.51575   0.12262   1.000
    H30     H    0.77548   0.01579   0.12274   1.000
    H31     H    0.77549   0.51578   0.12272   1.000
    H32     H    0.21201   0.27282   0.68376   1.000
    H33     H    0.21202   0.77283   0.68379   1.000
    H34     H    0.71197   0.27280   0.68374   1.000
    H35     H    0.71199   0.77281   0.68376   1.000
    H36     H    0.47488   0.26569   0.62322   1.000
    H37     H    0.47488   0.76571   0.62320   1.000
    H38     H    0.97485   0.26571   0.62324   1.000
    H39     H    0.97485   0.76569   0.62320   1.000
    H40     H    0.03812   0.22731   0.18399   1.000
    H41     H    0.03811   0.72731   0.18400   1.000
    H42     H    0.53804   0.22727   0.18400   1.000
    H43     H    0.53804   0.72728   0.18403   1.000
    H44     H    0.27545   0.23432   0.12278   1.000
    H45     H    0.27545   0.73432   0.12278   1.000
    H46     H    0.77551   0.23430   0.12272   1.000
    H47     H    0.77550   0.73431   0.12271   1.000
    H48     H    0.28793   0.02286   0.31613   1.000
    H49     H    0.28794   0.52286   0.31613   1.000
    H50     H    0.78791   0.02286   0.31611   1.000
    H51     H    0.78794   0.52285   0.31610   1.000
    H52     H    0.02506   0.01566   0.37663   1.000
    H53     H    0.02507   0.51566   0.37664   1.000
    H54     H    0.52505   0.01564   0.37665   1.000
    H55     H    0.52506   0.51569   0.37661   1.000
    H56     H    0.46186   0.47739   0.81609   1.000
    H57     H    0.46187   0.97738   0.81607   1.000
    H58     H    0.96188   0.47737   0.81607   1.000
    H59     H    0.96189   0.97738   0.81607   1.000
    H60     H    0.22453   0.48420   0.87722   1.000
    H61     H    0.22455   0.98422   0.87721   1.000
    H62     H    0.72446   0.48425   0.87735   1.000
    H63     H    0.72446   0.98426   0.87735   1.000
    H64     H    0.26744   0.12494   0.58314   1.000
    H65     H    0.26747   0.62498   0.58315   1.000
    H66     H    0.76743   0.12495   0.58314   1.000
    H67     H    0.76746   0.62491   0.58310   1.000
    C68     C    0.56266   0.62507   0.56548   1.000
    C69     C    0.05184   0.37499   0.08992   1.000
    C70     C    0.05185   0.87499   0.08990   1.000
    C71     C    0.55182   0.37498   0.08991   1.000
    H72     H    0.00077   0.12507   0.53644   1.000
    H73     H    0.00079   0.62505   0.53645   1.000
    H74     H    0.50076   0.12506   0.53644   1.000
    H75     H    0.50078   0.62510   0.53643   1.000
    H76     H    0.48192   0.37495   0.08351   1.000
    H77     H    0.48191   0.87491   0.08351   1.000
    H78     H    0.98192   0.37499   0.08351   1.000
    H79     H    0.98192   0.87499   0.08351   1.000
    H80     H    0.24844   0.37498   0.03591   1.000
    H81     H    0.24845   0.87502   0.03592   1.000
    H82     H    0.74842   0.37506   0.03591   1.000
    H83     H    0.74841   0.87511   0.03590   1.000
    H84     H    0.23261   0.37507   0.41684   1.000
    H85     H    0.23261   0.87512   0.41685   1.000
    H86     H    0.73258   0.37506   0.41683   1.000
    H87     H    0.73256   0.87506   0.41682   1.000
    H88     H    0.49928   0.37496   0.46356   1.000
    H89     H    0.49928   0.87493   0.46357   1.000
    H90     H    0.99924   0.37496   0.46350   1.000
    H91     H    0.99923   0.87496   0.46356   1.000
    H92     H    0.01808   0.12505   0.91648   1.000
    H93     H    0.01807   0.62501   0.91648   1.000
    H94     H    0.51807   0.12508   0.91649   1.000
    H95     H    0.51806   0.62510   0.91649   1.000
    H96     H    0.25156   0.12493   0.96406   1.000
    H97     H    0.25155   0.62494   0.96407   1.000
    H98     H    0.75155   0.12502   0.96406   1.000
    H99     H    0.75154   0.62502   0.96406   1.000
    N100    N    0.39789   0.04903   0.69075   1.000
    N101    N    0.39789   0.54905   0.69073   1.000
    N102    N    0.89785   0.04904   0.69073   1.000
    N103    N    0.89785   0.54904   0.69074   1.000
    N104    N    0.41093   0.04142   0.13825   1.000
    C105    C    0.22075   0.24224   0.32093   1.000
    C106    C    0.22076   0.74226   0.32096   1.000
    C107    C    0.72073   0.24222   0.32090   1.000
    C108    C    0.72075   0.74223   0.32089   1.000
    C109    C    0.08790   0.24588   0.35252   1.000
    C110    C    0.08790   0.74588   0.35252   1.000
    C111    C    0.58789   0.24589   0.35253   1.000
    C112    C    0.58791   0.74588   0.35251   1.000
    C113    C    0.02921   0.25773   0.82084   1.000
    C114    C    0.02920   0.75772   0.82088   1.000
    C115    C    0.52925   0.25775   0.82080   1.000
    C116    C    0.52923   0.75775   0.82081   1.000
    C117    C    0.16190   0.25415   0.85281   1.000
    C118    C    0.16191   0.75417   0.85280   1.000
    C119    C    0.66193   0.25414   0.85278   1.000
    C120    C    0.66192   0.75415   0.85278   1.000
    C121    C    0.27941   0.49220   0.67918   1.000
    C122    C    0.27938   0.99222   0.67916   1.000
    C123    C    0.77937   0.49219   0.67920   1.000
    C124    C    0.77936   0.99221   0.67910   1.000
    C125    C    0.41224   0.49591   0.64754   1.000
    C126    C    0.41223   0.99589   0.64758   1.000
    C127    C    0.91220   0.49589   0.64750   1.000
    C128    C    0.91219   0.99591   0.64755   1.000
    C129    C    0.47085   0.00767   0.17905   1.000
    C130    C    0.47083   0.50771   0.17908   1.000
    C131    C    0.97080   0.00771   0.17910   1.000
    C132    C    0.97080   0.50770   0.17909   1.000
    C133    C    0.33815   0.00415   0.14710   1.000
    C134    C    0.33815   0.50415   0.14708   1.000
    C135    C    0.83810   0.00417   0.14716   1.000
    C136    C    0.83810   0.50418   0.14716   1.000
    C137    C    0.27930   0.25779   0.67908   1.000
    C138    C    0.27931   0.75780   0.67909   1.000
    C139    C    0.77926   0.25778   0.67906   1.000
    C140    C    0.77928   0.75779   0.67907   1.000
    C141    C    0.41213   0.25413   0.64740   1.000
    C142    C    0.41214   0.75415   0.64746   1.000
    C143    C    0.91211   0.25414   0.64746   1.000
    C144    C    0.91211   0.75413   0.64744   1.000
    C145    C    0.47076   0.24227   0.17918   1.000
    C146    C    0.47076   0.74227   0.17918   1.000
    C147    C    0.97081   0.24229   0.17913   1.000
    C148    C    0.97080   0.74229   0.17914   1.000
    C149    C    0.33807   0.24588   0.14722   1.000
    C150    C    0.33807   0.74589   0.14722   1.000
    C151    C    0.83812   0.24587   0.14717   1.000
    C152    C    0.83811   0.74588   0.14716   1.000
    C153    C    0.22065   0.00782   0.32080   1.000
    C154    C    0.22067   0.50781   0.32082   1.000
    C155    C    0.72064   0.00781   0.32081   1.000
    C156    C    0.72066   0.50781   0.32081   1.000
    C157    C    0.08782   0.00412   0.35242   1.000
    C158    C    0.08782   0.50413   0.35242   1.000
    C159    C    0.58780   0.00411   0.35243   1.000
    C160    C    0.58782   0.50414   0.35240   1.000
    C161    C    0.02920   0.49232   0.82089   1.000
    C162    C    0.02921   0.99233   0.82090   1.000
    C163    C    0.52915   0.49234   0.82094   1.000
    C164    C    0.52917   0.99233   0.82091   1.000
    C165    C    0.16191   0.49582   0.85281   1.000
    C166    C    0.16192   0.99584   0.85280   1.000
    C167    C    0.66185   0.49586   0.85290   1.000
    C168    C    0.66185   0.99587   0.85291   1.000
    C169    C    0.19757   0.12497   0.58981   1.000
    C170    C    0.19759   0.62500   0.58980   1.000
    C171    C    0.69756   0.12499   0.58981   1.000
    C172    C    0.69758   0.62495   0.58980   1.000
    C173    C    0.06265   0.12505   0.56548   1.000
    C174    C    0.06267   0.62504   0.56549   1.000
    C175    C    0.56264   0.12503   0.56548   1.000
    C176    C    0.55182   0.87496   0.08991   1.000
    C177    C    0.18667   0.37499   0.06515   1.000
    C178    C    0.18668   0.87503   0.06516   1.000
    C179    C    0.68665   0.37504   0.06515   1.000
    C180    C    0.68664   0.87506   0.06510   1.000
    C181    C    0.30248   0.37503   0.41017   1.000
    C182    C    0.30248   0.87507   0.41018   1.000
    C183    C    0.80245   0.37503   0.41017   1.000
    C184    C    0.80244   0.87503   0.41016   1.000
    C185    C    0.43740   0.37498   0.43452   1.000
    C186    C    0.43740   0.87496   0.43452   1.000
    C187    C    0.93737   0.37497   0.43450   1.000
    C188    C    0.93735   0.87498   0.43451   1.000
    C189    C    0.44817   0.12505   0.91008   1.000
    C190    C    0.44816   0.62506   0.91008   1.000
    C191    C    0.94816   0.12503   0.91007   1.000
    C192    C    0.94815   0.62502   0.91007   1.000
    C193    C    0.31334   0.12496   0.93482   1.000
    C194    C    0.31333   0.62498   0.93483   1.000
    C195    C    0.81333   0.12502   0.93482   1.000
    C196    C    0.81332   0.62501   0.93482   1.000
    N197    N    0.16056   0.20852   0.36149   1.000
    N198    N    0.16056   0.70853   0.36150   1.000
    N199    N    0.66054   0.20851   0.36147   1.000
    N200    N    0.66057   0.70851   0.36146   1.000
    N201    N    0.18833   0.29656   0.28879   1.000
    N202    N    0.18833   0.79657   0.28880   1.000
    N203    N    0.68832   0.29655   0.28877   1.000
    N204    N    0.68833   0.79655   0.28876   1.000
    N205    N    0.10221   0.29903   0.30929   1.000
    N206    N    0.10221   0.79903   0.30900   1.000
    N207    N    0.60220   0.29903   0.30929   1.000
    N208    N    0.60221   0.79902   0.30928   1.000
    N209    N    0.08914   0.29146   0.86163   1.000
    N210    N    0.08914   0.79146   0.86164   1.000
    N211    N    0.58919   0.29147   0.86157   1.000
    N212    N    0.58917   0.79147   0.86158   1.000
    N213    N    0.06182   0.20349   0.78872   1.000
    N214    N    0.06182   0.70349   0.78873   1.000
    N215    N    0.56183   0.20348   0.78870   1.000
    N216    N    0.56182   0.70348   0.78872   1.000
    N217    N    0.14788   0.20104   0.80946   1.000
    N218    N    0.14788   0.70105   0.80947   1.000
    N219    N    0.64788   0.20102   0.80946   1.000
    N220    N    0.64788   0.70103   0.80945   1.000
    N221    N    0.33962   0.45850   0.63864   1.000
    N222    N    0.33960   0.95850   0.63865   1.000
    N223    N    0.83958   0.45848   0.63866   1.000
    N224    N    0.83957   0.95851   0.63860   1.000
    N225    N    0.31176   0.04654   0.71125   1.000
    N226    N    0.31177   0.54654   0.71126   1.000
    N227    N    0.81174   0.04653   0.71126   1.000
    N228    N    0.81175   0.54653   0.71128   1.000
    N229    N    0.41091   0.54144   0.13826   1.000
    N230    N    0.91086   0.04147   0.13833   1.000
    N231    N    0.91086   0.54147   0.13833   1.000
    N232    N    0.43820   0.45346   0.21123   1.000
    N233    N    0.43820   0.95347   0.21123   1.000
    N234    N    0.93819   0.45345   0.21123   1.000
    N235    N    0.93818   0.95346   0.21123   1.000
    N236    N    0.35215   0.45104   0.19047   1.000
    N237    N    0.35215   0.95104   0.19047   1.000
    N238    N    0.85213   0.45103   0.19049   1.000
    N239    N    0.85212   0.95105   0.19050   1.000
    N240    N    0.33948   0.29150   0.63850   1.000
    N241    N    0.33949   0.79152   0.63852   1.000
    N242    N    0.83945   0.29150   0.63850   1.000
    N243    N    0.83946   0.79150   0.63849   1.000
    N244    N    0.31171   0.20346   0.71120   1.000
    N245    N    0.31173   0.70348   0.71120   1.000
    N246    N    0.81169   0.20346   0.71120   1.000
    N247    N    0.81170   0.70347   0.71121   1.000
    N248    N    0.39783   0.20098   0.69069   1.000
    N249    N    0.39784   0.70100   0.69069   1.000
    N250    N    0.89781   0.20099   0.69069   1.000
    N251    N    0.89781   0.70099   0.69068   1.000
    N252    N    0.41081   0.20854   0.13842   1.000
    N253    N    0.41081   0.70855   0.13842   1.000
    N254    N    0.91087   0.20857   0.13830   1.000
    N255    N    0.91087   0.70857   0.13835   1.000
    N256    N    0.43818   0.29653   0.21128   1.000
    N257    N    0.43818   0.79654   0.21129   1.000
    N258    N    0.93820   0.29653   0.21127   1.000
    N259    N    0.93819   0.79653   0.21126   1.000
    N260    N    0.35213   0.29901   0.19053   1.000
    N261    N    0.35213   0.79901   0.19054   1.000
    N262    N    0.85214   0.29898   0.19051   1.000
    N263    N    0.85214   0.79899   0.19050   1.000
    N264    N    0.16043   0.04152   0.36134   1.000
    N265    N    0.16045   0.54152   0.36134   1.000
    N266    N    0.66042   0.04151   0.36134   1.000
    N267    N    0.66045   0.54152   0.36133   1.000
    N268    N    0.18829   0.45348   0.28872   1.000
    N269    N    0.18828   0.95348   0.28873   1.000
    N270    N    0.68829   0.45347   0.28872   1.000
    N271    N    0.68826   0.95349   0.28872   1.000
    N272    N    0.10218   0.45097   0.30925   1.000
    N273    N    0.10216   0.95098   0.30924   1.000
    N274    N    0.60217   0.45098   0.30923   1.000
    N275    N    0.60215   0.95097   0.30925   1.000
    N276    N    0.08914   0.45854   0.86165   1.000
    N277    N    0.08915   0.95855   0.86160   1.000
    N278    N    0.58907   0.45859   0.86174   1.000
    N279    N    0.58907   0.95859   0.86174   1.000
    N280    N    0.06183   0.04657   0.78876   1.000
    N281    N    0.06182   0.54657   0.78876   1.000
    N282    N    0.56181   0.04656   0.78877   1.000
    N283    N    0.56180   0.54657   0.78877   1.000
    N284    N    0.14790   0.04897   0.80948   1.000
    N285    N    0.14789   0.54897   0.80948   1.000
    N286    N    0.64787   0.04897   0.80951   1.000
    N287    N    0.64785   0.54898   0.80952   1.000
    N288    N    0.14143   0.12501   0.53103   1.000
    N289    N    0.14145   0.62502   0.53104   1.000
    N290    N    0.64142   0.12501   0.53103   1.000
    N291    N    0.64145   0.62501   0.53103   1.000
    N292    N    0.15754   0.12500   0.65595   1.000
    N293    N    0.15756   0.62502   0.65596   1.000
    N294    N    0.65753   0.12499   0.65595   1.000
    N295    N    0.65755   0.62499   0.65595   1.000
    N296    N    0.07000   0.12503   0.64032   1.000
    N297    N    0.07002   0.62504   0.64033   1.000
    N298    N    0.56999   0.12503   0.64032   1.000
    N299    N    0.57001   0.62504   0.64032   1.000
    N300    N    0.10775   0.37498   0.03096   1.000
    N301    N    0.10775   0.87501   0.03090   1.000
    N302    N    0.60772   0.37501   0.03096   1.000
    N303    N    0.60771   0.87501   0.03096   1.000
    N304    N    0.09214   0.37500   0.15591   1.000
    N305    N    0.09214   0.87502   0.15590   1.000
    N306    N    0.59212   0.37500   0.15591   1.000
    N307    N    0.59212   0.87499   0.15591   1.000
    N308    N    0.17962   0.37501   0.14003   1.000
    N309    N    0.17963   0.87502   0.14004   1.000
    N310    N    0.67960   0.37502   0.14003   1.000
    N311    N    0.67960   0.87505   0.14002   1.000
    N312    N    0.35861   0.37501   0.46896   1.000
    N313    N    0.35861   0.87501   0.46897   1.000
    N314    N    0.85858   0.37500   0.46896   1.000
    N315    N    0.85856   0.87501   0.46895   1.000
    N316    N    0.34252   0.37503   0.34404   1.000
    N317    N    0.34252   0.87504   0.34405   1.000
    N318    N    0.84249   0.37500   0.34404   1.000
    N319    N    0.84248   0.87501   0.34403   1.000
    N320    N    0.43006   0.37499   0.35960   1.000
    N321    N    0.43006   0.87499   0.35968   1.000
    N322    N    0.93003   0.37498   0.35967   1.000
    N323    N    0.93002   0.87498   0.35960   1.000
    N324    N    0.39226   0.12500   0.96902   1.000
    N325    N    0.39225   0.62502   0.96903   1.000
    N326    N    0.89225   0.12504   0.96902   1.000
    N327    N    0.89224   0.62502   0.96902   1.000
    N328    N    0.40788   0.12503   0.84407   1.000
    N329    N    0.40787   0.62504   0.84408   1.000
    N330    N    0.90786   0.12501   0.84407   1.000
    N331    N    0.90786   0.62501   0.84407   1.000
    N332    N    0.32040   0.12498   0.85995   1.000
    N333    N    0.32038   0.62499   0.85990   1.000
    N334    N    0.82038   0.12500   0.85995   1.000
    N335    N    0.82037   0.62501   0.85995   1.000
loop_
    _geom_bond_atom_site_label_1
    _geom_bond_atom_site_label_2
    _geom_bond_distance
    _geom_bond_site_symmetry_2
    _ccdc_geom_bond_type
    N301   C178      1.36200      .   S
    N301   C70       1.35907      .   S
    N300   C177      1.36148      .   S
    N300   C69       1.35848      .   S
    N302   C179      1.36148      .   S
    N302   C71       1.35834      .   S
    N303   C180      1.36111      .   S
    N303   C176      1.35830      .   S
    H83    C180      1.08546      .   S
    H80    C177      1.08582      .   S
    H82    C179      1.08582      .   S
    H81    C178      1.08587      .   S
    C180   N311      1.33834      .   S
    C179   N310      1.33764      .   S
    C177   N308      1.33764      .   S
    C178   N309      1.33765      .   S
    H79    C70       1.08484  1_655   S
    H78    C69       1.08490  1_655   S
    H77    C176      1.08451      .   S
    H76    C71       1.08448      .   S
    C70    N305      1.32955      .   S
    C71    N306      1.32961      .   S
    C176   N307      1.32962      .   S
    C69    N304      1.32943      .   S
    H29    C134      1.08498      .   S
    H28    C133      1.08499      .   S
    H47    C152      1.08496      .   S
    H46    C151      1.08499      .   S
    H31    C136      1.08499      .   S
    H30    C135      1.08493      .   S
    H45    C150      1.08501      .   S
    H44    C149      1.08497      .   S
    N104   C133      1.35971      .   S
    N104   C129      1.35793      .   S
    N229   C134      1.35969      .   S
    N229   C130      1.35786      .   S
    N254   C151      1.35978      .   S
    N254   C147      1.35836      .   S
    N230   C135      1.35968      .   S
    N230   C131      1.35791      .   S
    N231   C136      1.35966      .   S
    N231   C132      1.35793      .   S
    N255   C152      1.35967      .   S
    N255   C148      1.35795      .   S
    N253   C150      1.35965      .   S
    N253   C146      1.35788      .   S
    N252   C149      1.35967      .   S
    N252   C145      1.35796      .   S
    N311   N307      1.37891      .   S
    N308   N304      1.37889      .   S
    N310   N306      1.37888      .   S
    N309   N305      1.37885      .   S
    C134   N236      1.33659      .   S
    C133   N237      1.33627  1_545   S
    C136   N238      1.33665      .   S
    C135   N239      1.33635  1_545   S
    C152   N263      1.33659      .   S
    C151   N262      1.33655      .   S
    C149   N260      1.33664      .   S
    C150   N261      1.33662      .   S
    C129   H26       1.08446      .   S
    C129   N233      1.33144  1_545   S
    C130   H27       1.08447      .   S
    C130   N232      1.33164      .   S
    C132   H25       1.08483  1_655   S
    C132   N234      1.33167      .   S
    C131   H24       1.08483  1_655   S
    C131   N235      1.33148  1_545   S
    C147   H40       1.08483  1_655   S
    C147   N258      1.33173      .   S
    C148   H41       1.08483  1_655   S
    C148   N259      1.33164      .   S
    C145   H42       1.08440      .   S
    C145   N256      1.33159      .   S
    C146   H43       1.08446      .   S
    C146   N257      1.33170      .   S
    N237   N233      1.37909      .   S
    N236   N232      1.37908      .   S
    N238   N234      1.37904      .   S
    N263   N259      1.37908      .   S
    N239   N235      1.37906      .   S
    N262   N258      1.37911      .   S
    N260   N256      1.37905      .   S
    N261   N257      1.37907      .   S
    N268   N272      1.37878      .   S
    N268   C154      1.33170      .   S
    N271   N275      1.37877      .   S
    N271   C155      1.33152  1_565   S
    N270   N274      1.37878      .   S
    N270   C156      1.33176      .   S
    N269   N273      1.37876      .   S
    N269   C153      1.33148  1_565   S
    N204   N208      1.37872      .   S
    N204   C108      1.33166      .   S
    N203   N207      1.37873      .   S
    N203   C107      1.33170      .   S
    N201   N205      1.37873      .   S
    N201   C105      1.33168      .   S
    N202   N206      1.37737      .   S
    N202   C106      1.33170      .   S
    N206   C110      1.33933      .   S
    N274   C160      1.33623      .   S
    N273   C157      1.33607  1_565   S
    N275   C159      1.33603  1_565   S
    N272   C158      1.33633      .   S
    N208   C112      1.33624      .   S
    N207   C111      1.33632      .   S
    N205   C109      1.33632      .   S
    H51    C156      1.08448      .   S
    H50    C155      1.08444      .   S
    H48    C153      1.08444      .   S
    H49    C154      1.08445      .   S
    H3     C108      1.08445      .   S
    H2     C107      1.08443      .   S
    H0     C105      1.08443      .   S
    H1     C106      1.08445      .   S
    C153   N264      1.35814      .   S
    C155   N266      1.35799      .   S
    C156   N267      1.35800      .   S
    C154   N265      1.35804      .   S
    C108   N200      1.35801      .   S
    C107   N199      1.35799      .   S
    C105   N197      1.35809      .   S
    C106   N198      1.35802      .   S
    N319   N323      1.37880      .   S
    N319   C184      1.32952      .   S
    N318   N322      1.37902      .   S
    N318   C183      1.32951      .   S
    N316   N320      1.37878      .   S
    N316   C181      1.32949      .   S
    N317   N321      1.37905      .   S
    N317   C182      1.32947      .   S
    C160   N267      1.35933      .   S
    C160   H55       1.08498      .   S
    C158   N265      1.35930      .   S
    C158   H53       1.08494      .   S
    C157   N264      1.35933      .   S
    C157   H52       1.08496      .   S
    C159   N266      1.35931      .   S
    C159   H54       1.08493      .   S
    C112   N200      1.35932      .   S
    C112   H7        1.08498      .   S
    C110   N198      1.35933      .   S
    C110   H5        1.08491      .   S
    C109   N197      1.35934      .   S
    C109   H4        1.08494      .   S
    C111   N199      1.35931      .   S
    C111   H6        1.08492      .   S
    N320   C185      1.33878      .   S
    N323   C188      1.33859      .   S
    N322   C187      1.33717      .   S
    N321   C186      1.33736      .   S
    C184   H87       1.08452      .   S
    C184   N315      1.35865      .   S
    C181   H84       1.08453      .   S
    C181   N312      1.35868      .   S
    C183   H86       1.08452      .   S
    C183   N314      1.35867      .   S
    C182   H85       1.08453      .   S
    C182   N313      1.35869      .   S
    C187   H90       1.08542      .   S
    C187   N314      1.36148      .   S
    C188   H91       1.08585      .   S
    C188   N315      1.36133      .   S
    C185   H88       1.08580      .   S
    C185   N312      1.36132      .   S
    C186   H89       1.08589      .   S
    C186   N313      1.36138      .   S
    N291   C68       1.36136      .   S
    N291   C172      1.35846      .   S
    N288   C173      1.36133      .   S
    N288   C169      1.35862      .   S
    N290   C175      1.36134      .   S
    N290   C171      1.35860      .   S
    N289   C174      1.36134      .   S
    N289   C170      1.35833      .   S
    H75    C68       1.08589      .   S
    H72    C173      1.08583      .   S
    H74    C175      1.08583      .   S
    H73    C174      1.08582      .   S
    C173   N296      1.33736      .   S
    C175   N298      1.33736      .   S
    C68    N299      1.33736      .   S
    C174   N297      1.33736      .   S
    H67    C172      1.08460      .   S
    H64    C169      1.08453      .   S
    H66    C171      1.08453      .   S
    H65    C170      1.08449      .   S
    C172   N295      1.32980      .   S
    C170   N293      1.32994      .   S
    C171   N294      1.32962      .   S
    C169   N292      1.32961      .   S
    H39    C144      1.08495      .   S
    H37    C142      1.08510      .   S
    H36    C141      1.08460      .   S
    H38    C143      1.08492      .   S
    H20    C125      1.08489      .   S
    H23    C128      1.08497      .   S
    H22    C127      1.08449      .   S
    H21    C126      1.08497      .   S
    N243   C144      1.35932      .   S
    N243   C140      1.35803      .   S
    N242   C143      1.35933      .   S
    N242   C139      1.35802      .   S
    N240   C141      1.35923      .   S
    N240   C137      1.35802      .   S
    N241   C142      1.35934      .   S
    N241   C138      1.35799      .   S
    N224   C128      1.35939      .   S
    N224   C124      1.35765      .   S
    N221   C125      1.35931      .   S
    N221   C121      1.35796      .   S
    N222   C126      1.35932      .   S
    N222   C122      1.35797      .   S
    N223   C127      1.35919      .   S
    N223   C123      1.35805      .   S
    N299   N295      1.37903      .   S
    N298   N294      1.37905      .   S
    N296   N292      1.37906      .   S
    N297   N293      1.37905      .   S
    C141   N248      1.33681      .   S
    C144   N251      1.33630      .   S
    C143   N250      1.33629      .   S
    C142   N249      1.33628      .   S
    C127   N103      1.33703      .   S
    C125   N101      1.33638      .   S
    C128   N102      1.33602  1_565   S
    C126   N100      1.33599  1_565   S
    C139   H34       1.08444      .   S
    C139   N246      1.33167      .   S
    C140   H35       1.08445      .   S
    C140   N247      1.33169      .   S
    C137   H32       1.08444      .   S
    C137   N244      1.33164      .   S
    C138   H33       1.08444      .   S
    C138   N245      1.33153      .   S
    C124   H19       1.08454      .   S
    C124   N227      1.33203  1_565   S
    C122   H17       1.08439      .   S
    C122   N225      1.33152  1_565   S
    C121   H16       1.08446      .   S
    C121   N226      1.33172      .   S
    C123   H18       1.08443      .   S
    C123   N228      1.33170      .   S
    N251   N247      1.37879      .   S
    N248   N244      1.37871      .   S
    N250   N246      1.37875      .   S
    N249   N245      1.37865      .   S
    N101   N226      1.37874      .   S
    N102   N227      1.37875      .   S
    N103   N228      1.37873      .   S
    N100   N225      1.37877      .   S
    N215   N219      1.37914      .   S
    N215   C115      1.33173      .   S
    N213   N217      1.37908      .   S
    N213   C113      1.33162      .   S
    N216   N220      1.37904      .   S
    N216   C116      1.33163      .   S
    N214   N218      1.37909      .   S
    N214   C114      1.33171      .   S
    N281   N285      1.37907      .   S
    N281   C161      1.33164      .   S
    N280   N284      1.37905      .   S
    N280   C162      1.33142  1_545   S
    N283   N287      1.37906      .   S
    N283   C163      1.33167      .   S
    N282   N286      1.37906      .   S
    N282   C164      1.33143  1_545   S
    N220   C120      1.33667      .   S
    N219   C119      1.33663      .   S
    N217   C117      1.33666      .   S
    N218   C118      1.33662      .   S
    N285   C165      1.33658      .   S
    N284   C166      1.33636  1_545   S
    N286   C168      1.33636  1_545   S
    N287   C167      1.33661      .   S
    H9     C116      1.08457      .   S
    H8     C115      1.08445      .   S
    H10    C113      1.08483  1_655   S
    H11    C114      1.08484  1_655   S
    H58    C161      1.08483  1_655   S
    H59    C162      1.08483  1_655   S
    H57    C164      1.08446      .   S
    H56    C163      1.08446      .   S
    C115   N211      1.35796      .   S
    C116   N212      1.35793      .   S
    C113   N209      1.35799      .   S
    C114   N210      1.35793      .   S
    C161   N276      1.35792      .   S
    C162   N277      1.35755      .   S
    C164   N279      1.35796      .   S
    C163   N278      1.35788      .   S
    N328   N332      1.37894      .   S
    N328   C189      1.32967      .   S
    N330   N334      1.37891      .   S
    N330   C191      1.32955      .   S
    N331   N335      1.37892      .   S
    N331   C192      1.32954      .   S
    N329   N333      1.37870      .   S
    N329   C190      1.32952      .   S
    C119   N211      1.35965      .   S
    C119   H14       1.08494      .   S
    C120   N212      1.35966      .   S
    C120   H15       1.08494      .   S
    C118   N210      1.35970      .   S
    C118   H13       1.08496      .   S
    C166   N277      1.35957      .   S
    C166   H61       1.08494      .   S
    C117   N209      1.35966      .   S
    C117   H12       1.08495      .   S
    C165   N276      1.35966      .   S
    C165   H60       1.08493      .   S
    C167   N278      1.35970      .   S
    C167   H62       1.08498      .   S
    C168   N279      1.35971      .   S
    C168   H63       1.08495      .   S
    N333   C194      1.33854      .   S
    N332   C193      1.33748      .   S
    N334   C195      1.33747      .   S
    N335   C196      1.33747      .   S
    C192   H93       1.08486  1_655   S
    C192   N327      1.35840      .   S
    C191   H92       1.08488  1_655   S
    C191   N326      1.35839      .   S
    C190   H95       1.08450      .   S
    C190   N325      1.35841      .   S
    C189   H94       1.08450      .   S
    C189   N324      1.35830      .   S
    C193   H96       1.08590      .   S
    C193   N324      1.36147      .   S
    C195   H98       1.08586      .   S
    C195   N326      1.36152      .   S
    C196   H99       1.08586      .   S
    C196   N327      1.36151      .   S
    C194   H97       1.08589      .   S
    C194   N325      1.36149      .   S
