# CIF file generated by openbabel 2.4.90, see http://openbabel.sf.net
data_I
_chemical_name_common ''
_cell_length_a 13.841
_cell_length_b 13.841
_cell_length_c 13.841
_cell_angle_alpha 108.007
_cell_angle_beta 108.003
_cell_angle_gamma 108.002
_space_group_name_H-M_alt 'P 1'
_space_group_name_Hall 'P 1'
loop_
    _symmetry_equiv_pos_as_xyz
    x,y,z
loop_
    _atom_site_label
    _atom_site_type_symbol
    _atom_site_fract_x
    _atom_site_fract_y
    _atom_site_fract_z
    _atom_site_occupancy
    Cd0     Cd   0.59881   0.95510   0.46151   1.000
    Cd1     Cd   0.46148   0.59884   0.95512   1.000
    Cd2     Cd   0.04492   0.53851   0.40118   1.000
    Cd3     Cd   0.40116   0.04492   0.53851   1.000
    Cd4     Cd   0.53848   0.40117   0.04490   1.000
    H5      H    0.71260   0.48531   0.41362   1.000
    H6      H    0.55012   0.12894   0.24281   1.000
    H7      H    0.70111   0.09045   0.36055   1.000
    H8      H    0.83670   0.19565   0.39750   1.000
    H9      H    0.01676   0.45996   0.86223   1.000
    H10     H    0.00880   0.39325   0.00936   1.000
    H11     H    0.88394   0.19374   0.95408   1.000
    H12     H    0.76262   0.05394   0.75078   1.000
    H13     H    0.41360   0.71264   0.48531   1.000
    H14     H    0.24281   0.55013   0.12894   1.000
    H15     H    0.36053   0.70113   0.09045   1.000
    H16     H    0.39746   0.83673   0.19565   1.000
    H17     H    0.86217   0.01678   0.45997   1.000
    H18     H    0.00938   0.00882   0.39326   1.000
    H19     H    0.95405   0.88399   0.19375   1.000
    H20     H    0.75076   0.76265   0.05395   1.000
    H21     H    0.48530   0.41363   0.71260   1.000
    H22     H    0.12894   0.24282   0.55015   1.000
    H23     H    0.09045   0.36055   0.70115   1.000
    H24     H    0.19564   0.39749   0.83675   1.000
    H25     H    0.45994   0.86221   0.01677   1.000
    H26     H    0.39323   0.00937   0.00880   1.000
    H27     H    0.19373   0.95408   0.88399   1.000
    H28     H    0.05394   0.75079   0.76265   1.000
    H29     H    0.28737   0.51471   0.58641   1.000
    H30     H    0.44985   0.87108   0.75721   1.000
    H31     H    0.29886   0.90956   0.63947   1.000
    Cd32    Cd   0.95505   0.46150   0.59885   1.000
    H33     H    0.16327   0.80436   0.60250   1.000
    H34     H    0.98320   0.54006   0.13700   1.000
    H35     H    0.99117   0.60677   0.99066   1.000
    H36     H    0.11603   0.80627   0.04594   1.000
    H37     H    0.23736   0.94608   0.24924   1.000
    H38     H    0.58637   0.28738   0.51471   1.000
    H39     H    0.75716   0.44988   0.87109   1.000
    H40     H    0.63944   0.29888   0.90957   1.000
    H41     H    0.60251   0.16328   0.80437   1.000
    H42     H    0.13780   0.98324   0.54000   1.000
    H43     H    0.99059   0.99120   0.60676   1.000
    H44     H    0.04592   0.11602   0.80620   1.000
    H45     H    0.24921   0.23736   0.94608   1.000
    H46     H    0.51467   0.58639   0.28737   1.000
    H47     H    0.87103   0.75719   0.44987   1.000
    H48     H    0.90952   0.63946   0.29887   1.000
    H49     H    0.80433   0.60252   0.16327   1.000
    H50     H    0.54003   0.13781   0.98320   1.000
    H51     H    0.60674   0.99064   0.99122   1.000
    H52     H    0.80624   0.04593   0.11603   1.000
    H53     H    0.94603   0.24923   0.23737   1.000
    C54     C    0.69294   0.39650   0.38769   1.000
    C55     C    0.60948   0.21713   0.30019   1.000
    C56     C    0.76344   0.17921   0.41672   1.000
    C57     C    0.80093   0.20225   0.53889   1.000
    C58     C    0.89360   0.29317   0.72367   1.000
    C59     C    0.96207   0.37209   0.83800   1.000
    C60     C    0.95693   0.33410   0.91948   1.000
    C61     C    0.88604   0.22020   0.88796   1.000
    C62     C    0.81786   0.14126   0.77431   1.000
    C63     C    0.82083   0.17883   0.69158   1.000
    C64     C    0.38767   0.69297   0.39650   1.000
    C65     C    0.30018   0.60950   0.21713   1.000
    C66     C    0.41669   0.76347   0.17921   1.000
    C67     C    0.53885   0.80097   0.20226   1.000
    C68     C    0.72363   0.89366   0.29317   1.000
    C69     C    0.83815   0.96212   0.37210   1.000
    C70     C    0.91944   0.95699   0.33411   1.000
    C71     C    0.88793   0.88609   0.22021   1.000
    C72     C    0.77428   0.81790   0.14127   1.000
    C73     C    0.69155   0.82086   0.17884   1.000
    C74     C    0.39650   0.38770   0.69299   1.000
    C75     C    0.21713   0.30020   0.60952   1.000
    C76     C    0.17920   0.41672   0.76349   1.000
    C77     C    0.20224   0.53888   0.80090   1.000
    C78     C    0.29315   0.72366   0.89366   1.000
    C79     C    0.37207   0.83819   0.96213   1.000
    C80     C    0.33409   0.91948   0.95699   1.000
    C81     C    0.22019   0.88796   0.88609   1.000
    C82     C    0.14125   0.77431   0.81790   1.000
    C83     C    0.17883   0.69158   0.82087   1.000
    C84     C    0.30703   0.60351   0.61233   1.000
    C85     C    0.39049   0.78288   0.69983   1.000
    C86     C    0.23653   0.82080   0.58330   1.000
    C87     C    0.19904   0.79776   0.46114   1.000
    C88     C    0.10636   0.70685   0.27635   1.000
    C89     C    0.03790   0.62792   0.16183   1.000
    C90     C    0.04304   0.66591   0.08054   1.000
    C91     C    0.11393   0.77981   0.11206   1.000
    C92     C    0.18211   0.85875   0.22572   1.000
    C93     C    0.17915   0.82118   0.30844   1.000
    C94     C    0.61230   0.30704   0.60352   1.000
    C95     C    0.69979   0.39051   0.78289   1.000
    C96     C    0.58328   0.23654   0.82081   1.000
    C97     C    0.46112   0.19905   0.79777   1.000
    C98     C    0.27634   0.10637   0.70685   1.000
    C99     C    0.16182   0.03789   0.62790   1.000
    C100    C    0.08053   0.04303   0.66591   1.000
    C101    C    0.11204   0.11392   0.77982   1.000
    C102    C    0.22569   0.18212   0.85875   1.000
    C103    C    0.30842   0.17915   0.82110   1.000
    C104    C    0.60347   0.61232   0.30703   1.000
    C105    C    0.78284   0.69982   0.39050   1.000
    C106    C    0.82077   0.58330   0.23653   1.000
    C107    C    0.79773   0.46113   0.19904   1.000
    C108    C    0.70682   0.27635   0.10636   1.000
    C109    C    0.62790   0.16183   0.03789   1.000
    C110    C    0.66588   0.08054   0.04303   1.000
    C111    C    0.77978   0.11205   0.11393   1.000
    C112    C    0.85872   0.22571   0.18212   1.000
    C113    C    0.82115   0.30843   0.17915   1.000
    N114    N    0.59561   0.30809   0.29905   1.000
    N115    N    0.76557   0.36502   0.44291   1.000
    N116    N    0.71037   0.24902   0.38629   1.000
    N117    N    0.88082   0.30510   0.62514   1.000
    N118    N    0.76205   0.12274   0.57325   1.000
    N119    N    0.29904   0.59564   0.30809   1.000
    N120    N    0.44288   0.76561   0.36502   1.000
    N121    N    0.38626   0.71040   0.24902   1.000
    N122    N    0.62510   0.88086   0.30510   1.000
    N123    N    0.57322   0.76210   0.12274   1.000
    N124    N    0.30809   0.29906   0.59565   1.000
    N125    N    0.36501   0.44291   0.76563   1.000
    N126    N    0.24901   0.38628   0.71042   1.000
    N127    N    0.30508   0.62513   0.88080   1.000
    N128    N    0.12272   0.57325   0.76211   1.000
    N129    N    0.40436   0.69192   0.70090   1.000
    N130    N    0.23440   0.63500   0.55711   1.000
    N131    N    0.28960   0.75100   0.61374   1.000
    N132    N    0.11915   0.69492   0.37489   1.000
    N133    N    0.23791   0.87728   0.42670   1.000
    N134    N    0.70093   0.40438   0.69193   1.000
    N135    N    0.55709   0.23441   0.63500   1.000
    N136    N    0.61371   0.28962   0.75101   1.000
    N137    N    0.37487   0.11915   0.69492   1.000
    N138    N    0.42675   0.23792   0.87728   1.000
    N139    N    0.69188   0.70095   0.40437   1.000
    N140    N    0.63496   0.55710   0.23440   1.000
    N141    N    0.75096   0.61373   0.28960   1.000
    N142    N    0.69489   0.37489   0.11915   1.000
    N143    N    0.87725   0.42677   0.23790   1.000
loop_
    _geom_bond_atom_site_label_1
    _geom_bond_atom_site_label_2
    _geom_bond_distance
    _geom_bond_site_symmetry_2
    _ccdc_geom_bond_type
    H26    C80       1.09018  1_544   S
    H10    C60       1.09004  1_454   S
    H25    C79       1.08975  1_554   S
    C109   C110      1.39261      .   S
    C109   C108      1.40180      .   S
    C109   H50       1.08993  1_554   S
    C110   C111      1.41159      .   S
    C110   H51       1.09017  1_544   S
    Cd4    N142      2.28420      .   S
    Cd4    N140      2.42372      .   S
    Cd4    N138      2.29365  1_554   S
    H36    C91       1.09069      .   S
    H20    C72       1.08766      .   S
    C90    C91       1.41157      .   S
    C90    C89       1.39267      .   S
    C90    H35       1.09004  1_454   S
    H15    C66       1.09443      .   S
    C108   N142      1.38804      .   S
    C108   C113      1.42116      .   S
    C91    C92       1.39338      .   S
    C111   H52       1.09065      .   S
    C111   C112      1.39334      .   S
    N142   C107      1.35446      .   S
    N123   C73       1.39530      .   S
    N123   C67       1.35753      .   S
    N123   Cd1       2.29369  1_554   S
    H14    C65       1.08311      .   S
    H34    C89       1.08721  1_655   S
    C72    C73       1.40250      .   S
    C72    C71       1.39334      .   S
    C89    C88       1.40176      .   S
    H49    C106      1.10107      .   S
    C73    C68       1.42122      .   S
    C113   C112      1.40254      .   S
    C113   N143      1.39531      .   S
    C66    H16       1.10104      .   S
    C66    C67       1.50064      .   S
    C66    N121      1.46623      .   S
    C112   H53       1.08767      .   S
    H19    C71       1.09065      .   S
    C107   C106      1.50069      .   S
    C107   N143      1.35744      .   S
    C67    N122      1.35442      .   S
    C65    N121      1.35278      .   S
    C65    N119      1.33487      .   S
    C71    C70       1.41157      .   S
    C92    H37       1.08770      .   S
    C92    C93       1.40249      .   S
    N140   N141      1.36728      .   S
    N140   C104      1.33652      .   S
    C106   N141      1.46612      .   S
    C106   H48       1.09442      .   S
    N143   Cd2       2.29428  1_655   S
    H6     C55       1.08315      .   S
    N121   N120      1.36728      .   S
    C88    C93       1.42116      .   S
    C88    N132      1.38814      .   S
    H46    C104      1.08346      .   S
    N141   C105      1.35281      .   S
    C68    N122      1.38802      .   S
    C68    C69       1.40179      .   S
    N114   C55       1.33486      .   S
    N114   C54       1.35963      .   S
    C55    N116      1.35282      .   S
    N122   Cd0       2.28417      .   S
    C104   N139      1.35967      .   S
    N119   C64       1.35965      .   S
    C93    N133      1.39449      .   S
    C70    C69       1.39264      .   S
    C70    H18       1.09065  1_665   S
    H7     C56       1.09443      .   S
    N120   C64       1.33652      .   S
    N120   Cd0       2.42369      .   S
    C69    H17       1.08983  1_565   S
    N132   Cd2       2.28427      .   S
    N132   C87       1.35447      .   S
    N116   C56       1.46611      .   S
    N116   N115      1.36729      .   S
    C54    H5        1.08345      .   S
    C54    N115      1.33655      .   S
    C105   N139      1.33489      .   S
    C105   H47       1.08314      .   S
    C64    H13       1.08350      .   S
    H8     C56       1.10105      .   S
    Cd2    N130      2.42364      .   S
    C56    C57       1.50075      .   S
    N133   C87       1.35826      .   S
    N133   Cd3       2.29390  1_565   S
    N115   Cd32      2.42369      .   S
    C87    C86       1.50062      .   S
    Cd0    N118      2.29381  1_565   S
    H38    C94       1.08350      .   S
    Cd3    N135      2.42369      .   S
    Cd3    N137      2.28415      .   S
    C57    N118      1.35747      .   S
    C57    N117      1.35447      .   S
    H42    C99       1.09015  1_565   S
    H22    C75       1.08314      .   S
    N130   C84       1.33656      .   S
    N130   N131      1.36728      .   S
    N118   C63       1.39529      .   S
    C86    H33       1.10088      .   S
    C86    N131      1.46617      .   S
    C86    H31       1.09442      .   S
    H29    C84       1.08346      .   S
    N124   C75       1.33488      .   S
    N124   C74       1.35967      .   S
    Cd32   N117      2.28429      .   S
    Cd32   N128      2.29415  1_655   S
    C94    N135      1.33651      .   S
    C94    N134      1.35965      .   S
    H43    C100      1.09065  1_665   S
    C75    N126      1.35282      .   S
    C84    N129      1.35933      .   S
    N131   C85       1.35276      .   S
    N117   C58       1.38800      .   S
    C99    C100      1.39282      .   S
    C99    C98       1.40187      .   S
    N135   N136      1.36739      .   S
    C100   C101      1.41164      .   S
    C63    C58       1.42116      .   S
    C63    C62       1.40262      .   S
    N134   C95       1.33487      .   S
    C74    H21       1.08360      .   S
    C74    N125      1.33662      .   S
    N137   C98       1.38804      .   S
    N137   C97       1.35451      .   S
    C85    N129      1.33461      .   S
    C85    H30       1.08315      .   S
    H23    C76       1.09442      .   S
    C98    C103      1.42026      .   S
    N126   C76       1.46612      .   S
    N126   N125      1.36728      .   S
    C58    C59       1.39997      .   S
    H12    C62       1.08766      .   S
    N136   C95       1.35281      .   S
    N136   C96       1.46611      .   S
    N128   C77       1.35719      .   S
    N128   C83       1.39532      .   S
    H28    C82       1.08766      .   S
    C76    C77       1.50076      .   S
    C76    H24       1.10106      .   S
    N125   Cd1       2.42362      .   S
    C62    C61       1.39328      .   S
    C101   H44       1.09000      .   S
    C101   C102      1.39332      .   S
    C95    H39       1.08320      .   S
    C97    C96       1.50067      .   S
    C97    N138      1.35743      .   S
    C77    N127      1.35450      .   S
    H41    C96       1.10105      .   S
    C82    C83       1.40255      .   S
    C82    C81       1.39335      .   S
    C96    H40       1.09443      .   S
    C83    C78       1.42115      .   S
    C103   C102      1.40321      .   S
    C103   N138      1.39533      .   S
    C59    H9        1.08926  1_655   S
    C59    C60       1.39515      .   S
    C102   H45       1.08775      .   S
    N127   C78       1.38791      .   S
    N127   Cd1       2.28441      .   S
    H27    C81       1.09064      .   S
    C81    C80       1.41159      .   S
    C61    C60       1.41158      .   S
    C61    H11       1.09068      .   S
    C78    C79       1.40180      .   S
    C80    C79       1.39262      .   S
