# CIF file generated by openbabel 2.4.90, see http://openbabel.sf.net
data_I
_chemical_name_common ''
_cell_length_a 13.201
_cell_length_b 23.707
_cell_length_c 16.267
_cell_angle_alpha 90.023
_cell_angle_beta 89.995
_cell_angle_gamma 90
_space_group_name_H-M_alt 'P 1'
_space_group_name_Hall 'P 1'
loop_
    _symmetry_equiv_pos_as_xyz
    x,y,z
loop_
    _atom_site_label
    _atom_site_type_symbol
    _atom_site_fract_x
    _atom_site_fract_y
    _atom_site_fract_z
    _atom_site_occupancy
    Zr0     Zr   0.89955   0.71934   0.97268   1.000
    Zr1     Zr   0.77246   0.47233   0.12083   1.000
    Zr2     Zr   0.60044   0.78065   0.47257   1.000
    Zr3     Zr   0.72757   0.02768   0.62080   1.000
    Zr4     Zr   0.89959   0.28068   0.52730   1.000
    Zr5     Zr   0.77245   0.52767   0.37920   1.000
    Zr6     Zr   0.60046   0.21935   0.02748   1.000
    Zr7     Zr   0.72756   0.97233   0.87923   1.000
    Zr8     Zr   0.10044   0.28067   0.02730   1.000
    Zr9     Zr   0.22753   0.52768   0.87922   1.000
    Zr10    Zr   0.39956   0.21936   0.52740   1.000
    Zr11    Zr   0.27242   0.97232   0.37923   1.000
    Zr12    Zr   0.10041   0.71932   0.47267   1.000
    Zr13    Zr   0.22754   0.47234   0.62083   1.000
    Zr14    Zr   0.39953   0.78066   0.97257   1.000
    Zr15    Zr   0.27244   0.02768   0.12082   1.000
    Zr16    Zr   0.86724   0.66246   0.31320   1.000
    Zr17    Zr   0.63244   0.83764   0.81305   1.000
    Zr18    Zr   0.86728   0.33755   0.18685   1.000
    Zr19    Zr   0.63245   0.16237   0.68701   1.000
    Zr20    Zr   0.13276   0.33755   0.68685   1.000
    Zr21    Zr   0.36755   0.16237   0.18700   1.000
    Zr22    Zr   0.13272   0.66246   0.81320   1.000
    Zr23    Zr   0.36754   0.83764   0.31303   1.000
    Zr24    Zr   0.84494   0.59953   0.14302   1.000
    Zr25    Zr   0.85462   0.63453   0.26130   1.000
    Zr26    Zr   0.65504   0.90051   0.64290   1.000
    Zr27    Zr   0.64516   0.86555   0.76117   1.000
    Zr28    Zr   0.84497   0.40048   0.35703   1.000
    Zr29    Zr   0.85465   0.36548   0.23870   1.000
    Zr30    Zr   0.65505   0.09950   0.85714   1.000
    Zr31    Zr   0.64517   0.13446   0.73889   1.000
    Zr32    Zr   0.15505   0.40048   0.85703   1.000
    Zr33    Zr   0.14538   0.36548   0.73875   1.000
    Zr34    Zr   0.34495   0.09950   0.35713   1.000
    Zr35    Zr   0.35484   0.13446   0.23888   1.000
    Zr36    Zr   0.15503   0.59953   0.64302   1.000
    Zr37    Zr   0.14535   0.63453   0.76130   1.000
    Zr38    Zr   0.34494   0.90050   0.14290   1.000
    Zr39    Zr   0.35482   0.86555   0.26110   1.000
    Zr40    Zr   0.82491   0.58046   0.27168   1.000
    Zr41    Zr   0.81806   0.55764   0.19454   1.000
    Zr42    Zr   0.86795   0.64857   0.18172   1.000
    Zr43    Zr   0.67495   0.91961   0.77100   1.000
    Zr44    Zr   0.68192   0.94240   0.69447   1.000
    Zr45    Zr   0.63189   0.85149   0.68157   1.000
    Zr46    Zr   0.82493   0.41955   0.22837   1.000
    Zr47    Zr   0.81808   0.44236   0.30551   1.000
    Zr48    Zr   0.86799   0.35144   0.31833   1.000
    Zr49    Zr   0.67496   0.08040   0.72846   1.000
    Zr50    Zr   0.68193   0.05761   0.80558   1.000
    Zr51    Zr   0.63189   0.14852   0.81849   1.000
    Zr52    Zr   0.17508   0.41955   0.72837   1.000
    Zr53    Zr   0.18192   0.44237   0.80551   1.000
    Zr54    Zr   0.13204   0.35144   0.81833   1.000
    Zr55    Zr   0.32504   0.08040   0.22845   1.000
    Zr56    Zr   0.31808   0.05761   0.30550   1.000
    Zr57    Zr   0.36811   0.14852   0.31840   1.000
    Zr58    Zr   0.17506   0.58046   0.77168   1.000
    Zr59    Zr   0.18192   0.55764   0.69454   1.000
    Zr60    Zr   0.13201   0.64857   0.68172   1.000
    Zr61    Zr   0.32503   0.91960   0.27159   1.000
    Zr62    Zr   0.31806   0.94240   0.19440   1.000
    Zr63    Zr   0.36809   0.85149   0.18155   1.000
    O64     O    0.29525   0.98504   0.15761   1.000
    O65     O    0.29874   0.05404   0.17464   1.000
    O66     O    0.79526   0.51499   0.15769   1.000
    O67     O    0.79870   0.44594   0.17460   1.000
    O68     O    0.35651   0.87600   0.16223   1.000
    O69     O    0.33150   0.92145   0.16865   1.000
    O70     O    0.85645   0.62405   0.16237   1.000
    O71     O    0.83150   0.57858   0.16878   1.000
    O72     O    0.36146   0.85852   0.22133   1.000
    O73     O    0.86129   0.64155   0.22151   1.000
    O74     O    0.86096   0.35151   0.21278   1.000
    O75     O    0.36120   0.14841   0.21294   1.000
    O76     O    0.32155   0.93100   0.23300   1.000
    O77     O    0.82149   0.56905   0.23311   1.000
    O78     O    0.83979   0.39251   0.23354   1.000
    O79     O    0.82151   0.43095   0.26694   1.000
    O80     O    0.33994   0.10743   0.23367   1.000
    O81     O    0.32156   0.06901   0.26698   1.000
    O82     O    0.86132   0.35846   0.27852   1.000
    O83     O    0.36147   0.14149   0.27864   1.000
    O84     O    0.33993   0.89257   0.26635   1.000
    O85     O    0.36118   0.85159   0.28707   1.000
    O86     O    0.83976   0.60749   0.26649   1.000
    O87     O    0.86093   0.64849   0.28725   1.000
    O88     O    0.29873   0.94596   0.32541   1.000
    O89     O    0.79868   0.55406   0.32544   1.000
    O90     O    0.33152   0.07856   0.33132   1.000
    O91     O    0.29525   0.01497   0.34237   1.000
    O92     O    0.83152   0.42142   0.33127   1.000
    O93     O    0.79527   0.48501   0.34236   1.000
    O94     O    0.85648   0.37596   0.33768   1.000
    O95     O    0.35653   0.12401   0.33777   1.000
    O96     O    0.70475   0.98504   0.65764   1.000
    O97     O    0.70127   0.05404   0.67463   1.000
    O98     O    0.20473   0.51499   0.65768   1.000
    O99     O    0.20131   0.44595   0.67460   1.000
    O100    O    0.64346   0.87600   0.66224   1.000
    O101    O    0.66848   0.92145   0.66869   1.000
    O102    O    0.14352   0.62405   0.66237   1.000
    O103    O    0.16847   0.57859   0.66878   1.000
    O104    O    0.63852   0.85852   0.72137   1.000
    O105    O    0.13868   0.64155   0.72151   1.000
    O106    O    0.13907   0.35152   0.71280   1.000
    O107    O    0.63881   0.14841   0.71295   1.000
    O108    O    0.67843   0.93100   0.73274   1.000
    O109    O    0.17849   0.56905   0.73311   1.000
    O110    O    0.16023   0.39252   0.73356   1.000
    O111    O    0.17850   0.43096   0.76694   1.000
    O112    O    0.66006   0.10743   0.73368   1.000
    O113    O    0.67845   0.06901   0.76702   1.000
    O114    O    0.13871   0.35846   0.77854   1.000
    O115    O    0.63853   0.14149   0.77869   1.000
    O116    O    0.66005   0.89258   0.76609   1.000
    O117    O    0.63880   0.85160   0.78711   1.000
    O118    O    0.16021   0.60750   0.76649   1.000
    O119    O    0.13903   0.64850   0.78725   1.000
    O120    O    0.70125   0.94597   0.82512   1.000
    O121    O    0.20130   0.55407   0.82545   1.000
    O122    O    0.16849   0.42142   0.83127   1.000
    O123    O    0.20473   0.48502   0.84237   1.000
    O124    O    0.66849   0.07856   0.83136   1.000
    O125    O    0.70474   0.01497   0.84241   1.000
    O126    O    0.14355   0.37596   0.83768   1.000
    O127    O    0.64347   0.12401   0.83782   1.000
    N128    N    0.61068   0.58823   0.42050   1.000
    O129    O    0.64731   0.55124   0.39807   1.000
    O130    O    0.81250   0.65356   0.44948   1.000
    O131    O    0.60384   0.65923   0.44448   1.000
    O132    O    0.66778   0.57604   0.41432   1.000
    O133    O    0.64712   0.67553   0.44971   1.000
    N134    N    0.88929   0.91172   0.92051   1.000
    O135    O    0.68746   0.84641   0.94942   1.000
    O136    O    0.85267   0.94873   0.89810   1.000
    O137    O    0.83220   0.92392   0.91432   1.000
    O138    O    0.89613   0.84074   0.94451   1.000
    O139    O    0.85285   0.82444   0.94977   1.000
    N140    N    0.13310   0.61988   0.32454   1.000
    O141    O    0.14347   0.60692   0.46192   1.000
    O142    O    0.12561   0.64614   0.40408   1.000
    O143    O    0.12122   0.65835   0.36542   1.000
    O144    O    0.16592   0.56201   0.44882   1.000
    N145    N    0.11070   0.91170   0.42051   1.000
    O146    O    0.16778   0.92391   0.41432   1.000
    O147    O    0.14712   0.82443   0.44976   1.000
    O148    O    0.10385   0.84073   0.44450   1.000
    O149    O    0.31252   0.84640   0.44944   1.000
    O150    O    0.14731   0.94871   0.39810   1.000
    N151    N    0.61070   0.41175   0.07954   1.000
    O152    O    0.66779   0.42395   0.08572   1.000
    O153    O    0.64733   0.44875   0.10195   1.000
    O154    O    0.60387   0.34077   0.05556   1.000
    O155    O    0.81253   0.34643   0.05055   1.000
    O156    O    0.64714   0.32446   0.05033   1.000
    N157    N    0.88930   0.08830   0.57949   1.000
    O158    O    0.85287   0.17558   0.55007   1.000
    O159    O    0.83221   0.07610   0.58570   1.000
    O160    O    0.85268   0.05129   0.60192   1.000
    O161    O    0.89614   0.15928   0.55550   1.000
    O162    O    0.68747   0.15361   0.55057   1.000
    N163    N    0.63327   0.87999   0.32441   1.000
    O164    O    0.66605   0.93792   0.44873   1.000
    O165    O    0.62574   0.85378   0.40397   1.000
    O166    O    0.62135   0.84155   0.36530   1.000
    O167    O    0.64357   0.89302   0.46180   1.000
    N168    N    0.86689   0.38013   0.67551   1.000
    O169    O    0.87438   0.35387   0.59595   1.000
    O170    O    0.83408   0.43800   0.55123   1.000
    O171    O    0.87878   0.34165   0.63461   1.000
    O172    O    0.85653   0.39309   0.53813   1.000
    N173    N    0.13312   0.38012   0.17550   1.000
    O174    O    0.14349   0.39308   0.03813   1.000
    O175    O    0.16593   0.43799   0.05123   1.000
    O176    O    0.12564   0.35386   0.09594   1.000
    O177    O    0.12124   0.34164   0.13460   1.000
    N178    N    0.38931   0.41177   0.57952   1.000
    O179    O    0.35288   0.32448   0.55030   1.000
    O180    O    0.33222   0.42396   0.58570   1.000
    O181    O    0.39615   0.34078   0.55553   1.000
    O182    O    0.18749   0.34645   0.55054   1.000
    O183    O    0.35268   0.44877   0.60196   1.000
    N184    N    0.36672   0.12002   0.67563   1.000
    O185    O    0.35642   0.10698   0.53824   1.000
    O186    O    0.37863   0.15846   0.63472   1.000
    O187    O    0.33394   0.06208   0.55131   1.000
    O188    O    0.37425   0.14623   0.59606   1.000
    N189    N    0.36669   0.87999   0.82441   1.000
    O190    O    0.35639   0.89303   0.96179   1.000
    O191    O    0.33393   0.93792   0.94873   1.000
    O192    O    0.37422   0.85379   0.90397   1.000
    O193    O    0.37861   0.84155   0.86530   1.000
    N194    N    0.86687   0.61989   0.82454   1.000
    O195    O    0.87875   0.65837   0.86543   1.000
    O196    O    0.83407   0.56202   0.94882   1.000
    O197    O    0.87436   0.64615   0.90409   1.000
    O198    O    0.85651   0.60692   0.96192   1.000
    N199    N    0.38930   0.58825   0.92050   1.000
    O200    O    0.35285   0.67555   0.94972   1.000
    O201    O    0.35267   0.55126   0.89807   1.000
    O202    O    0.18747   0.65357   0.94948   1.000
    O203    O    0.33220   0.57606   0.91430   1.000
    O204    O    0.39613   0.65924   0.94448   1.000
    N205    N    0.11070   0.08829   0.07952   1.000
    O206    O    0.10387   0.15927   0.05552   1.000
    O207    O    0.14714   0.17557   0.05026   1.000
    O208    O    0.14732   0.05128   0.10194   1.000
    O209    O    0.31254   0.15359   0.05058   1.000
    O210    O    0.16780   0.07609   0.08572   1.000
    N211    N    0.63330   0.12001   0.17559   1.000
    O212    O    0.64360   0.10698   0.03808   1.000
    O213    O    0.66606   0.06208   0.05130   1.000
    O214    O    0.62577   0.14622   0.09606   1.000
    O215    O    0.62138   0.15846   0.13472   1.000
loop_
    _geom_bond_atom_site_label_1
    _geom_bond_atom_site_label_2
    _geom_bond_distance
    _geom_bond_site_symmetry_2
    _ccdc_geom_bond_type
    Zr15   O64       1.21293  1_545   S
    Zr62   O64       1.21293      .   S
    Zr15   O65       1.13009      .   S
    Zr55   O65       1.13009      .   S
    Zr1    O66       1.21331      .   S
    Zr41   O66       1.21331      .   S
    Zr1    O67       1.13005      .   S
    Zr46   O67       1.13005      .   S
    Zr38   O68       0.67815      .   S
    Zr63   O68       0.67815      .   S
    Zr38   O69       0.67331      .   S
    Zr62   O69       0.67331      .   S
    Zr24   O70       0.67817      .   S
    Zr42   O70       0.67817      .   S
    Zr24   O71       0.67362      .   S
    Zr41   O71       0.67362      .   S
    Zr63   O72       0.67377      .   S
    Zr39   O72       0.67377      .   S
    Zr42   O73       0.67415      .   S
    Zr25   O73       0.67415      .   S
    Zr18   O74       0.54246      .   S
    Zr29   O74       0.54246      .   S
    Zr21   O75       0.54279      .   S
    Zr35   O75       0.54279      .   S
    Zr62   O76       0.68515      .   S
    Zr61   O76       0.68515      .   S
    Zr41   O77       0.68463      .   S
    Zr40   O77       0.68463      .   S
    Zr46   O78       0.67554      .   S
    Zr29   O78       0.67554      .   S
    Zr46   O79       0.68463      .   S
    Zr47   O79       0.68463      .   S
    Zr55   O80       0.67558      .   S
    Zr35   O80       0.67558      .   S
    Zr55   O81       0.68410      .   S
    Zr56   O81       0.68410      .   S
    Zr29   O82       0.67454      .   S
    Zr48   O82       0.67454      .   S
    Zr35   O83       0.67356      .   S
    Zr57   O83       0.67356      .   S
    Zr39   O84       0.67564      .   S
    Zr61   O84       0.67564      .   S
    Zr39   O85       0.54312      .   S
    Zr23   O85       0.54312      .   S
    Zr25   O86       0.67559      .   S
    Zr40   O86       0.67559      .   S
    Zr25   O87       0.54278      .   S
    Zr16   O87       0.54278      .   S
    Zr61   O88       1.13009      .   S
    Zr11   O88       1.13009      .   S
    Zr40   O89       1.12987      .   S
    Zr5    O89       1.12987      .   S
    Zr56   O90       0.67400      .   S
    Zr34   O90       0.67400      .   S
    Zr56   O91       1.21359      .   S
    Zr11   O91       1.21359  1_565   S
    Zr47   O92       0.67363      .   S
    Zr28   O92       0.67363      .   S
    Zr47   O93       1.21320      .   S
    Zr5    O93       1.21320      .   S
    Zr48   O94       0.67817      .   S
    Zr28   O94       0.67817      .   S
    Zr57   O95       0.67844      .   S
    Zr34   O95       0.67844      .   S
    Zr3    O96       1.21334  1_545   S
    Zr44   O96       1.21334      .   S
    Zr3    O97       1.13022      .   S
    Zr49   O97       1.13022      .   S
    Zr13   O98       1.21328      .   S
    Zr59   O98       1.21328      .   S
    Zr13   O99       1.12999      .   S
    Zr52   O99       1.12999      .   S
    Zr26   O100      0.67822      .   S
    Zr45   O100      0.67822      .   S
    Zr26   O101      0.67370      .   S
    Zr44   O101      0.67370      .   S
    Zr36   O102      0.67817      .   S
    Zr60   O102      0.67817      .   S
    Zr36   O103      0.67362      .   S
    Zr59   O103      0.67362      .   S
    Zr45   O104      0.67418      .   S
    Zr27   O104      0.67418      .   S
    Zr60   O105      0.67415      .   S
    Zr37   O105      0.67415      .   S
    Zr20   O106      0.54278      .   S
    Zr33   O106      0.54278      .   S
    Zr19   O107      0.54280      .   S
    Zr31   O107      0.54280      .   S
    Zr44   O108      0.68022      .   S
    Zr43   O108      0.68022      .   S
    Zr59   O109      0.68463      .   S
    Zr58   O109      0.68463      .   S
    Zr52   O110      0.67559      .   S
    Zr33   O110      0.67559      .   S
    Zr52   O111      0.68463      .   S
    Zr53   O111      0.68463      .   S
    Zr49   O112      0.67558      .   S
    Zr31   O112      0.67558      .   S
    Zr49   O113      0.68463      .   S
    Zr50   O113      0.68463      .   S
    Zr33   O114      0.67415      .   S
    Zr54   O114      0.67415      .   S
    Zr31   O115      0.67417      .   S
    Zr51   O115      0.67417      .   S
    Zr27   O116      0.67500      .   S
    Zr43   O116      0.67500      .   S
    Zr27   O117      0.54278      .   S
    Zr17   O117      0.54278      .   S
    Zr37   O118      0.67559      .   S
    Zr58   O118      0.67559      .   S
    Zr37   O119      0.54277      .   S
    Zr22   O119      0.54277      .   S
    Zr43   O120      1.13387      .   S
    Zr7    O120      1.13387      .   S
    Zr58   O121      1.13004      .   S
    Zr9    O121      1.13004      .   S
    Zr53   O122      0.67361      .   S
    Zr32   O122      0.67361      .   S
    Zr53   O123      1.21330      .   S
    Zr9    O123      1.21330      .   S
    Zr50   O124      0.67361      .   S
    Zr30   O124      0.67361      .   S
    Zr50   O125      1.21322      .   S
    Zr7    O125      1.21322  1_565   S
    Zr54   O126      0.67818      .   S
    Zr32   O126      0.67818      .   S
    Zr51   O127      0.67816      .   S
    Zr30   O127      0.67816      .   S
    N128   O129      1.06577      .   S
    Zr5    O129      1.77067      .   S
    N128   O130      3.11740      .   S
    Zr12   O130      4.12532  1_455   S
    N128   O131      1.72982      .   S
    Zr2    O131      2.91477      .   S
    N128   O132      0.81345      .   S
    Zr5    O132      1.88429      .   S
    N128   O133      2.17705      .   S
    Zr2    O133      2.59371      .   S
    N134   O135      3.11734      .   S
    Zr14   O135      4.12538      .   S
    N134   O136      1.06609      .   S
    Zr7    O136      1.77069      .   S
    N134   O137      0.81356      .   S
    Zr7    O137      1.88454      .   S
    N134   O138      1.72991      .   S
    Zr0    O138      2.91497      .   S
    N134   O139      2.17717      .   S
    Zr0    O139      2.59394      .   S
    N140   O141      2.26005      .   S
    Zr36   O141      2.95525      .   S
    N140   O142      1.43911      .   S
    Zr12   O142      2.08905      .   S
    N140   O143      1.13945      .   S
    Zr12   O143      2.28174      .   S
    N140   O144      2.48181      .   S
    Zr13   O144      3.60771      .   S
    N145   O146      0.81353      .   S
    Zr11   O146      1.88461      .   S
    N145   O147      2.17708      .   S
    Zr12   O147      2.59385      .   S
    N145   O148      1.72984      .   S
    Zr12   O148      2.91482      .   S
    N145   O149      3.11732      .   S
    Zr2    O149      4.12527      .   S
    N145   O150      1.06612      .   S
    Zr11   O150      1.77069      .   S
    N151   O152      0.81349      .   S
    Zr1    O152      1.88431      .   S
    N151   O153      1.06573      .   S
    Zr1    O153      1.77076      .   S
    N151   O154      1.72973      .   S
    Zr6    O154      2.91458      .   S
    N151   O155      3.11743      .   S
    Zr8    O155      4.12535  1_455   S
    N151   O156      2.17696      .   S
    Zr6    O156      2.59355      .   S
    N157   O158      2.17769      .   S
    Zr4    O158      2.59352      .   S
    N157   O159      0.81357      .   S
    Zr3    O159      1.88465      .   S
    N157   O160      1.06623      .   S
    Zr3    O160      1.77073      .   S
    N157   O161      1.72987      .   S
    Zr4    O161      2.91489      .   S
    N157   O162      3.11731      .   S
    Zr10   O162      4.12534      .   S
    N163   O164      2.48207      .   S
    Zr3    O164      3.60809  1_545   S
    N163   O165      1.43918      .   S
    Zr2    O165      2.08909      .   S
    N163   O166      1.13939      .   S
    Zr2    O166      2.28196      .   S
    N163   O167      2.26005      .   S
    Zr26   O167      2.95515      .   S
    N168   O169      1.43941      .   S
    Zr4    O169      2.08958      .   S
    N168   O170      2.48185      .   S
    Zr5    O170      3.60789      .   S
    N168   O171      1.13962      .   S
    Zr4    O171      2.28253      .   S
    N168   O172      2.26004      .   S
    Zr28   O172      2.95524      .   S
    N173   O174      2.25998      .   S
    Zr32   O174      2.95516  1_556   S
    N173   O175      2.48175      .   S
    Zr9    O175      3.60765  1_556   S
    N173   O176      1.43939      .   S
    Zr8    O176      2.08957      .   S
    N173   O177      1.13964      .   S
    Zr8    O177      2.28246      .   S
    N178   O179      2.17705      .   S
    Zr10   O179      2.59378      .   S
    N178   O180      0.81347      .   S
    Zr13   O180      1.88431      .   S
    N178   O181      1.72982      .   S
    Zr10   O181      2.91486      .   S
    N178   O182      3.11739      .   S
    Zr4    O182      4.12536  1_655   S
    N178   O183      1.06586      .   S
    Zr13   O183      1.77067      .   S
    N184   O185      2.26010      .   S
    Zr34   O185      2.95529      .   S
    N184   O186      1.13960      .   S
    Zr10   O186      2.28261      .   S
    N184   O187      2.48207      .   S
    Zr11   O187      3.60823  1_565   S
    N184   O188      1.43943      .   S
    Zr10   O188      2.08959      .   S
    N189   O190      2.25999      .   S
    Zr38   O190      2.95517  1_554   S
    N189   O191      2.48199      .   S
    Zr15   O191      3.60805  1_544   S
    N189   O192      1.43919      .   S
    Zr14   O192      2.08905      .   S
    N189   O193      1.13941      .   S
    Zr14   O193      2.28192      .   S
    N194   O195      1.13950      .   S
    Zr0    O195      2.28184      .   S
    N194   O196      2.48182      .   S
    Zr1    O196      3.60772  1_554   S
    N194   O197      1.43918      .   S
    Zr0    O197      2.08913      .   S
    N194   O198      2.26004      .   S
    Zr24   O198      2.95523  1_554   S
    N199   O200      2.17700      .   S
    Zr14   O200      2.59358      .   S
    N199   O201      1.06580      .   S
    Zr9    O201      1.77069      .   S
    N199   O202      3.11741      .   S
    Zr0    O202      4.12528  1_655   S
    N199   O203      0.81352      .   S
    Zr9    O203      1.88417      .   S
    N199   O204      1.72976      .   S
    Zr14   O204      2.91462      .   S
    N205   O206      1.72993      .   S
    Zr8    O206      2.91508      .   S
    N205   O207      2.17720      .   S
    Zr8    O207      2.59404      .   S
    N205   O208      1.06614      .   S
    Zr15   O208      1.77073      .   S
    N205   O209      3.11741      .   S
    Zr6    O209      4.12531      .   S
    N205   O210      0.81357      .   S
    Zr15   O210      1.88459      .   S
    N211   O212      2.26207      .   S
    Zr30   O212      2.95248  1_556   S
    N211   O213      2.48168      .   S
    Zr7    O213      3.60776  1_566   S
    N211   O214      1.43886      .   S
    Zr6    O214      2.08887      .   S
    N211   O215      1.13929      .   S
    Zr6    O215      2.28152      .   S
