# CIF file generated by openbabel 2.4.90, see http://openbabel.sf.net
data_I
_chemical_name_common ''
_cell_length_a 17.665
_cell_length_b 15.53
_cell_length_c 19.77
_cell_angle_alpha 90.028
_cell_angle_beta 89.996
_cell_angle_gamma 90.022
_space_group_name_H-M_alt 'P 1'
_space_group_name_Hall 'P 1'
loop_
    _symmetry_equiv_pos_as_xyz
    x,y,z
loop_
    _atom_site_label
    _atom_site_type_symbol
    _atom_site_fract_x
    _atom_site_fract_y
    _atom_site_fract_z
    _atom_site_occupancy
    Zn0     Zn   0.71630   0.03725   0.74162   1.000
    Zn1     Zn   0.03379   0.96270   0.24153   1.000
    Zn2     Zn   0.53368   0.96273   0.24162   1.000
    Zn3     Zn   0.28385   0.53736   0.75851   1.000
    Zn4     Zn   0.78383   0.53736   0.75851   1.000
    Zn5     Zn   0.46625   0.46272   0.25850   1.000
    Zn6     Zn   0.96620   0.46274   0.25851   1.000
    Zn7     Zn   0.21637   0.03725   0.74161   1.000
