# CIF file generated by openbabel 2.4.90, see http://openbabel.sf.net
data_I
_chemical_name_common ''
_cell_length_a 8.578
_cell_length_b 13.866
_cell_length_c 21.033
_cell_angle_alpha 109.128
_cell_angle_beta 92.71
_cell_angle_gamma 89.975
_space_group_name_H-M_alt 'P 1'
_space_group_name_Hall 'P 1'
loop_
    _symmetry_equiv_pos_as_xyz
    x,y,z
loop_
    _atom_site_label
    _atom_site_type_symbol
    _atom_site_fract_x
    _atom_site_fract_y
    _atom_site_fract_z
    _atom_site_occupancy
    Zr0     Zr   0.25032   0.00030   0.25005   1.000
    Zr1     Zr   0.25007   0.00132   0.75011   1.000
    Zr2     Zr   0.25038   0.50032   0.25005   1.000
    Zr3     Zr   0.24999   0.50135   0.75009   1.000
    Zr4     Zr   0.75027   0.00030   0.25004   1.000
    Zr5     Zr   0.75006   0.00133   0.75011   1.000
    Zr6     Zr   0.75035   0.50033   0.25005   1.000
    Zr7     Zr   0.74999   0.50135   0.75009   1.000
    Zr8     Zr   0.25047   0.25029   0.25004   1.000
    Zr9     Zr   0.25026   0.25121   0.74999   1.000
    Zr10    Zr   0.25037   0.75023   0.25001   1.000
    Zr11    Zr   0.25021   0.75119   0.74997   1.000
    Zr12    Zr   0.75045   0.25029   0.25004   1.000
    Zr13    Zr   0.75024   0.25121   0.74999   1.000
    Zr14    Zr   0.75033   0.75024   0.25001   1.000
    Zr15    Zr   0.75023   0.75119   0.74997   1.000
    N16     N    0.50868   0.91165   0.32330   1.000
    N17     N    0.49168   0.08976   0.67674   1.000
    O18     O    0.36224   0.99946   0.70011   1.000
    O19     O    0.36239   0.20340   0.69994   1.000
    O20     O    0.33608   0.91374   0.26461   1.000
    O21     O    0.33609   0.85122   0.26460   1.000
    O22     O    0.66430   0.15027   0.73543   1.000
    O23     O    0.66425   0.08779   0.73546   1.000
    O24     O    0.63799   0.00212   0.29996   1.000
    O25     O    0.63804   0.79801   0.30002   1.000
    O26     O    0.50631   0.03997   0.57814   1.000
    N27     N    0.00880   0.41171   0.32329   1.000
    N28     N    0.99159   0.58976   0.67671   1.000
    O29     O    0.86215   0.49944   0.70009   1.000
    O30     O    0.13817   0.29807   0.30005   1.000
    O31     O    0.13807   0.50221   0.30001   1.000
    O32     O    0.86235   0.70340   0.69991   1.000
    O33     O    0.83618   0.35126   0.26461   1.000
    O34     O    0.83616   0.41377   0.26461   1.000
    O35     O    0.16426   0.65025   0.73540   1.000
    O36     O    0.16421   0.58779   0.73543   1.000
    O37     O    0.99406   0.46122   0.42187   1.000
    N38     N    0.00871   0.91164   0.32329   1.000
    N39     N    0.99165   0.08977   0.67675   1.000
    O40     O    0.86221   0.99947   0.70011   1.000
    O41     O    0.13806   0.79799   0.30002   1.000
    O42     O    0.83606   0.91374   0.26461   1.000
    O43     O    0.83607   0.85122   0.26460   1.000
    O44     O    0.86239   0.20341   0.69990   1.000
    O45     O    0.13802   0.00212   0.30001   1.000
    O46     O    0.16430   0.08778   0.73545   1.000
    O47     O    0.16434   0.15025   0.73542   1.000
    O48     O    0.00628   0.03997   0.57814   1.000
    N49     N    0.50855   0.91269   0.82330   1.000
    N50     N    0.49180   0.08891   0.17674   1.000
    O51     O    0.33588   0.91479   0.76465   1.000
    O52     O    0.33592   0.85226   0.76462   1.000
    O53     O    0.36243   0.99849   0.20005   1.000
    O54     O    0.63774   0.00322   0.80005   1.000
    O55     O    0.66447   0.08682   0.23541   1.000
    O56     O    0.66451   0.14932   0.23541   1.000
    O57     O    0.36254   0.20255   0.19998   1.000
    O58     O    0.63805   0.79907   0.79999   1.000
    O59     O    0.50632   0.03960   0.07813   1.000
    N60     N    0.00856   0.91269   0.82300   1.000
    N61     N    0.99178   0.08890   0.17674   1.000
    O62     O    0.13775   0.00323   0.80005   1.000
    O63     O    0.13804   0.79908   0.79999   1.000
    O64     O    0.83591   0.85225   0.76462   1.000
    O65     O    0.83587   0.91479   0.76465   1.000
    O66     O    0.86241   0.99848   0.20004   1.000
    O67     O    0.86252   0.20255   0.19997   1.000
    O68     O    0.16448   0.08682   0.23542   1.000
    O69     O    0.16452   0.14932   0.23542   1.000
    O70     O    0.99394   0.96168   0.92175   1.000
    N71     N    0.49180   0.58882   0.17672   1.000
    N72     N    0.50851   0.41272   0.82331   1.000
    O73     O    0.66447   0.58681   0.23540   1.000
    O74     O    0.66447   0.64929   0.23539   1.000
    O75     O    0.63769   0.50328   0.80006   1.000
    O76     O    0.36249   0.70246   0.19995   1.000
    O77     O    0.63803   0.29911   0.80000   1.000
    O78     O    0.33584   0.41481   0.76465   1.000
    O79     O    0.33590   0.35227   0.76463   1.000
    O80     O    0.36246   0.49841   0.20004   1.000
    O81     O    0.49393   0.46166   0.92189   1.000
    N82     N    0.99179   0.58884   0.17673   1.000
    N83     N    0.00854   0.41273   0.82331   1.000
    O84     O    0.16450   0.64928   0.23540   1.000
    O85     O    0.16450   0.58680   0.23541   1.000
    O86     O    0.86244   0.49842   0.20005   1.000
    O87     O    0.86248   0.70248   0.19995   1.000
    O88     O    0.83589   0.35228   0.76464   1.000
    O89     O    0.83583   0.41482   0.76466   1.000
    O90     O    0.13805   0.29911   0.80001   1.000
    O91     O    0.13771   0.50328   0.80007   1.000
    O92     O    0.99394   0.46167   0.92190   1.000
    N93     N    0.49160   0.58976   0.67673   1.000
    N94     N    0.50880   0.41173   0.32329   1.000
    O95     O    0.63805   0.50223   0.30001   1.000
    O96     O    0.63818   0.29809   0.30003   1.000
    O97     O    0.66427   0.65025   0.73540   1.000
    O98     O    0.66421   0.58779   0.73543   1.000
    O99     O    0.33619   0.35126   0.26463   1.000
    O100    O    0.33617   0.41377   0.26463   1.000
    O101    O    0.36216   0.49944   0.70010   1.000
    O102    O    0.36234   0.70340   0.69992   1.000
    O103    O    0.50625   0.53998   0.57813   1.000
loop_
    _geom_bond_atom_site_label_1
    _geom_bond_atom_site_label_2
    _geom_bond_distance
    _geom_bond_site_symmetry_2
    _ccdc_geom_bond_type
    N17    O18       1.87053  1_545   S
    Zr1    O18       1.45258  1_545   S
    N17    O19       1.86995      .   S
    Zr9    O19       1.45280      .   S
    N16    O20       1.88863      .   S
    Zr0    O20       1.51477  1_545   S
    N16    O21       1.88898      .   S
    Zr10   O21       1.51451      .   S
    N17    O22       1.88935      .   S
    Zr13   O22       1.51496      .   S
    N17    O23       1.88855      .   S
    Zr5    O23       1.51462      .   S
    N16    O24       1.87112  1_565   S
    Zr4    O24       1.45226      .   S
    N16    O25       1.87043      .   S
    Zr14   O25       1.45316      .   S
    N16    O26       5.06531  1_565   S
    N17    O26       1.96955      .   S
    N28    O29       1.87073      .   S
    Zr7    O29       1.45240      .   S
    N27    O30       1.87039      .   S
    Zr8    O30       1.45323      .   S
    N27    O31       1.87064      .   S
    Zr2    O31       1.45284      .   S
    N28    O32       1.86978      .   S
    Zr15   O32       1.45270      .   S
    N27    O33       1.88907  1_455   S
    Zr12   O33       1.51433      .   S
    N27    O34       1.88868  1_455   S
    Zr6    O34       1.51494      .   S
    N28    O35       1.88963  1_655   S
    Zr11   O35       1.51484      .   S
    N28    O36       1.88876  1_655   S
    Zr3    O36       1.51440      .   S
    N28    O37       5.06524      .   S
    N27    O37       1.96937  1_455   S
    N39    O40       1.87041  1_545   S
    Zr5    O40       1.45249  1_545   S
    N38    O41       1.87041      .   S
    Zr10   O41       1.45319      .   S
    N38    O42       1.88894  1_455   S
    Zr4    O42       1.51487  1_545   S
    N38    O43       1.88917  1_455   S
    Zr14   O43       1.51452      .   S
    N39    O44       1.86984      .   S
    Zr13   O44       1.45341      .   S
    N38    O45       1.87062  1_565   S
    Zr0    O45       1.45289      .   S
    N39    O46       1.88890  1_655   S
    Zr1    O46       1.51450      .   S
    N39    O47       1.88963  1_655   S
    Zr9    O47       1.51492      .   S
    N38    O48       5.06538  1_565   S
    N39    O48       1.96990  1_655   S
    N49    O51       1.88861      .   S
    Zr1    O51       1.51441  1_545   S
    N49    O52       1.88914      .   S
    Zr11   O52       1.51519      .   S
    N50    O53       1.87061  1_545   S
    Zr0    O53       1.45257  1_545   S
    N49    O54       1.87027  1_565   S
    Zr5    O54       1.45255      .   S
    N50    O55       1.88899      .   S
    Zr4    O55       1.51515      .   S
    N50    O56       1.88954      .   S
    Zr12   O56       1.51500      .   S
    N50    O57       1.86980      .   S
    Zr8    O57       1.45239      .   S
    N49    O58       1.87082      .   S
    Zr15   O58       1.45296      .   S
    N49    O59       5.06486  1_566   S
    N50    O59       1.96975      .   S
    N60    O62       1.86707  1_565   S
    Zr1    O62       1.45256      .   S
    N60    O63       1.87066      .   S
    Zr11   O63       1.45292      .   S
    N60    O64       1.88632  1_455   S
    Zr15   O64       1.51506      .   S
    N60    O65       1.88486  1_455   S
    Zr5    O65       1.51450  1_545   S
    N61    O66       1.87060  1_545   S
    Zr4    O66       1.45253  1_545   S
    N61    O67       1.86983      .   S
    Zr12   O67       1.45253      .   S
    N61    O68       1.88931  1_655   S
    Zr0    O68       1.51519      .   S
    N61    O69       1.88981  1_655   S
    Zr8    O69       1.51509      .   S
    N61    O70       5.06799  1_544   S
    N60    O70       1.97264  1_455   S
    N71    O73       1.88887      .   S
    Zr6    O73       1.51508      .   S
    N71    O74       1.88939      .   S
    Zr14   O74       1.51456      .   S
    N72    O75       1.87041      .   S
    Zr7    O75       1.45287      .   S
    N71    O76       1.87005      .   S
    Zr10   O76       1.45283      .   S
    N72    O77       1.87094      .   S
    Zr13   O77       1.45307      .   S
    N72    O78       1.88872      .   S
    Zr3    O78       1.51486      .   S
    N72    O79       1.88902      .   S
    Zr9    O79       1.51496      .   S
    N71    O80       1.87055      .   S
    Zr2    O80       1.45220      .   S
    N71    O81       5.06479  1_554   S
    N72    O81       1.96923      .   S
    N82    O84       1.88959  1_655   S
    Zr10   O84       1.51458      .   S
    N82    O85       1.88917  1_655   S
    Zr2    O85       1.51506      .   S
    N82    O86       1.87058      .   S
    Zr6    O86       1.45211      .   S
    N82    O87       1.87002      .   S
    Zr14   O87       1.45285      .   S
    N83    O88       1.88917  1_455   S
    Zr13   O88       1.51504      .   S
    N83    O89       1.88883  1_455   S
    Zr7    O89       1.51481      .   S
    N83    O90       1.87095      .   S
    Zr9    O90       1.45313      .   S
    N83    O91       1.87028      .   S
    Zr3    O91       1.45283      .   S
    N82    O92       5.06480  1_554   S
    N83    O92       1.96946  1_455   S
    N94    O95       1.87058      .   S
    Zr6    O95       1.45279      .   S
    N94    O96       1.87040      .   S
    Zr12   O96       1.45292      .   S
    N93    O97       1.88942      .   S
    Zr15   O97       1.51489      .   S
    N93    O98       1.88849      .   S
    Zr7    O98       1.51441      .   S
    N94    O99       1.88891      .   S
    Zr8    O99       1.51432      .   S
    N94    O100      1.88839      .   S
    Zr2    O100      1.51488      .   S
    N93    O101      1.87067      .   S
    Zr3    O101      1.45234      .   S
    N93    O102      1.86978      .   S
    Zr11   O102      1.45277      .   S
    N94    O103      5.06529      .   S
    N93    O103      1.96967      .   S
