# CIF file generated by openbabel 2.4.90, see http://openbabel.sf.net
data_I
_chemical_name_common ''
_cell_length_a 10.9375
_cell_length_b 13.463
_cell_length_c 15.13
_cell_angle_alpha 90.056
_cell_angle_beta 105.416
_cell_angle_gamma 90.013
_space_group_name_H-M_alt 'P 1'
_space_group_name_Hall 'P 1'
loop_
    _symmetry_equiv_pos_as_xyz
    x,y,z
loop_
    _atom_site_label
    _atom_site_type_symbol
    _atom_site_fract_x
    _atom_site_fract_y
    _atom_site_fract_z
    _atom_site_occupancy
    Zr0     Zr   0.75175   0.17410   0.49994   1.000
    Zr1     Zr   0.25058   0.82537   0.50002   1.000
    N2      N    0.00005   0.49990   0.00003   1.000
    O3      O    0.90253   0.35189   0.23137   1.000
    O4      O    0.09866   0.64781   0.76869   1.000
    N5      N    0.00025   0.99987   0.99999   1.000
    O6      O    0.84839   0.06120   0.22680   1.000
    O7      O    0.15276   0.93842   0.77312   1.000
    N8      N    0.50000   0.00017   0.99968   1.000
    O9      O    0.65317   0.06135   0.77295   1.000
    O10     O    0.34793   0.93855   0.22674   1.000
    N11     N    0.50048   0.49955   0.99974   1.000
    O12     O    0.59941   0.35166   0.76845   1.000
    O13     O    0.40218   0.64760   0.23122   1.000
loop_
    _geom_bond_atom_site_label_1
    _geom_bond_atom_site_label_2
    _geom_bond_distance
    _geom_bond_site_symmetry_2
    _ccdc_geom_bond_type
    N2     O3        4.39967  1_455   S
    Zr0    O3        5.34240      .   S
    N2     O4        4.40445  1_554   S
    Zr1    O4        5.34866      .   S
    N5     O6        4.27103  1_466   S
    Zr0    O6        4.77680      .   S
    N5     O7        4.27662      .   S
    Zr1    O7        4.78251      .   S
    N8     O9        4.27935      .   S
    Zr0    O9        4.78622      .   S
    N8     O10       4.27788  1_546   S
    Zr1    O10       4.78570      .   S
    N11    O12       4.40242      .   S
    Zr0    O12       5.34562      .   S
    N11    O13       4.40271  1_556   S
    Zr1    O13       5.34659      .   S
