# CIF file generated by openbabel 2.4.90, see http://openbabel.sf.net
data_I
_chemical_name_common ''
_cell_length_a 20.472
_cell_length_b 12.631
_cell_length_c 15.386
_cell_angle_alpha 90.011
_cell_angle_beta 90.002
_cell_angle_gamma 90.012
_space_group_name_H-M_alt 'P 1'
_space_group_name_Hall 'P 1'
loop_
    _symmetry_equiv_pos_as_xyz
    x,y,z
loop_
    _atom_site_label
    _atom_site_type_symbol
    _atom_site_fract_x
    _atom_site_fract_y
    _atom_site_fract_z
    _atom_site_occupancy
    H0      H    0.18813   0.75819   0.06706   1.000
    H1      H    0.68814   0.75819   0.06706   1.000
    H2      H    0.32714   0.78239   0.86736   1.000
    H3      H    0.82715   0.78239   0.86736   1.000
    H4      H    0.21862   0.47307   0.73064   1.000
    H5      H    0.71862   0.47307   0.73064   1.000
    H6      H    0.36582   0.65263   0.61031   1.000
    H7      H    0.86582   0.65263   0.61031   1.000
    H8      H    0.06188   0.24188   0.56706   1.000
    H9      H    0.56188   0.24188   0.56705   1.000
    H10     H    0.42287   0.21759   0.36736   1.000
    H11     H    0.92288   0.21759   0.36736   1.000
    H12     H    0.03132   0.52699   0.23071   1.000
    H13     H    0.53131   0.52698   0.23070   1.000
    H14     H    0.38413   0.34734   0.11035   1.000
    H15     H    0.88413   0.34734   0.11030   1.000
    H16     H    0.31186   0.25822   0.43289   1.000
    H17     H    0.81187   0.25822   0.43290   1.000
    H18     H    0.17284   0.28240   0.63256   1.000
    H19     H    0.67284   0.28240   0.63256   1.000
    H20     H    0.28137   0.97309   0.76923   1.000
    H21     H    0.78137   0.97309   0.76923   1.000
    H22     H    0.13418   0.15254   0.88966   1.000
    H23     H    0.63419   0.15254   0.88966   1.000
    H24     H    0.43812   0.74171   0.93280   1.000
    H25     H    0.93812   0.74171   0.93287   1.000
    H26     H    0.07712   0.71761   0.13261   1.000
    H27     H    0.57712   0.71761   0.13260   1.000
    H28     H    0.46871   0.02699   0.26928   1.000
    H29     H    0.96870   0.02700   0.26929   1.000
    H30     H    0.11583   0.84735   0.38960   1.000
    H31     H    0.61584   0.84735   0.38961   1.000
    H32     H    0.31187   0.24185   0.93289   1.000
    H33     H    0.81187   0.24185   0.93289   1.000
    H34     H    0.17286   0.21765   0.13259   1.000
    H35     H    0.67286   0.21765   0.13259   1.000
    H36     H    0.28138   0.52697   0.26931   1.000
    H37     H    0.78138   0.52698   0.26931   1.000
    H38     H    0.13418   0.34741   0.38964   1.000
    H39     H    0.63419   0.34740   0.38964   1.000
    H40     H    0.43812   0.75816   0.43289   1.000
    H41     H    0.93811   0.75816   0.43290   1.000
    H42     H    0.07713   0.78245   0.63260   1.000
    H43     H    0.57713   0.78245   0.63259   1.000
    H44     H    0.46869   0.47305   0.76924   1.000
    H45     H    0.96868   0.47305   0.76925   1.000
    H46     H    0.11588   0.65270   0.88960   1.000
    H47     H    0.61587   0.65270   0.88960   1.000
    H48     H    0.18814   0.74181   0.56706   1.000
    H49     H    0.68814   0.74181   0.56706   1.000
    H50     H    0.32716   0.71764   0.36739   1.000
    H51     H    0.82716   0.71764   0.36739   1.000
    H52     H    0.21863   0.02695   0.23072   1.000
    H53     H    0.71863   0.02696   0.23072   1.000
    H54     H    0.36582   0.84750   0.11029   1.000
    H55     H    0.86582   0.84751   0.11029   1.000
    H56     H    0.06188   0.25832   0.06709   1.000
    H57     H    0.56189   0.25832   0.06707   1.000
    H58     H    0.42288   0.28242   0.86735   1.000
    H59     H    0.92288   0.28243   0.86730   1.000
    H60     H    0.03130   0.97303   0.73067   1.000
    H61     H    0.53129   0.97304   0.73067   1.000
    H62     H    0.38417   0.15269   0.61034   1.000
    H63     H    0.88418   0.15271   0.61035   1.000
    C64     C    0.22134   0.73729   0.01502   1.000
    C65     C    0.72134   0.73729   0.01502   1.000
    C66     C    0.29196   0.75179   0.91362   1.000
    C67     C    0.79196   0.75179   0.91362   1.000
    C68     C    0.26071   0.52356   0.71943   1.000
    C69     C    0.76072   0.52356   0.71943   1.000
    C70     C    0.33552   0.61677   0.66009   1.000
    C71     C    0.83552   0.61678   0.66009   1.000
    N72     N    0.52179   0.36135   0.48647   1.000
    N73     N    0.49086   0.19037   0.47192   1.000
    N74     N    0.99086   0.19037   0.47193   1.000
    N75     N    0.45394   0.42703   0.28151   1.000
    C76     C    0.02868   0.26275   0.51502   1.000
    C77     C    0.52868   0.26275   0.51501   1.000
    C78     C    0.45806   0.24820   0.41360   1.000
    C79     C    0.95806   0.24820   0.41363   1.000
    C80     C    0.48923   0.47645   0.21948   1.000
    C81     C    0.98923   0.47646   0.21949   1.000
    C82     C    0.41444   0.38321   0.16013   1.000
    C83     C    0.91444   0.38322   0.16013   1.000
    C84     C    0.27866   0.23731   0.48494   1.000
    C85     C    0.77867   0.23732   0.48494   1.000
    C86     C    0.20803   0.25181   0.58631   1.000
    C87     C    0.70803   0.25181   0.58631   1.000
    C88     C    0.23928   0.02356   0.78047   1.000
    C89     C    0.73928   0.02356   0.78047   1.000
    C90     C    0.16449   0.11672   0.83986   1.000
    C91     C    0.66450   0.11672   0.83986   1.000
    C92     C    0.47132   0.76264   0.98492   1.000
    C93     C    0.97132   0.76264   0.98492   1.000
    C94     C    0.04194   0.74819   0.08635   1.000
    C95     C    0.54194   0.74819   0.08634   1.000
    N96     N    0.27349   0.85043   0.42118   1.000
    N97     N    0.77349   0.85043   0.42118   1.000
    N98     N    0.22820   0.86131   0.48645   1.000
    N99     N    0.72820   0.86131   0.48645   1.000
    N100    N    0.25918   0.69038   0.47195   1.000
    C101    C    0.01077   0.97647   0.28050   1.000
    C102    C    0.51077   0.97647   0.28050   1.000
    C103    C    0.08554   0.88323   0.33984   1.000
    C104    C    0.58554   0.88323   0.33984   1.000
    C105    C    0.27866   0.26275   0.98493   1.000
    C106    C    0.77867   0.26275   0.98493   1.000
    C107    C    0.20804   0.24824   0.08633   1.000
    C108    C    0.70804   0.24825   0.08633   1.000
    C109    C    0.23928   0.47648   0.28052   1.000
    C110    C    0.73929   0.47648   0.28052   1.000
    C111    C    0.16448   0.38326   0.33986   1.000
    C112    C    0.66449   0.38326   0.33986   1.000
    C113    C    0.47133   0.73728   0.48494   1.000
    C114    C    0.97132   0.73728   0.48494   1.000
    C115    C    0.04194   0.75184   0.58633   1.000
    C116    C    0.54194   0.75183   0.58632   1.000
    C117    C    0.01077   0.52358   0.78047   1.000
    C118    C    0.51077   0.52358   0.78047   1.000
    C119    C    0.08556   0.61682   0.83983   1.000
    C120    C    0.58556   0.61682   0.83982   1.000
    C121    C    0.22134   0.76272   0.51501   1.000
    C122    C    0.72134   0.76272   0.51501   1.000
    C123    C    0.29196   0.74822   0.41364   1.000
    C124    C    0.79197   0.74822   0.41364   1.000
    C125    C    0.26071   0.97647   0.21948   1.000
    C126    C    0.76072   0.97648   0.21948   1.000
    C127    C    0.33551   0.88332   0.16009   1.000
    C128    C    0.83551   0.88333   0.16009   1.000
    C129    C    0.02868   0.23739   0.01504   1.000
    C130    C    0.52868   0.23739   0.01503   1.000
    C131    C    0.45806   0.25185   0.91361   1.000
    C132    C    0.95806   0.25185   0.91361   1.000
    C133    C    0.48923   0.02357   0.71945   1.000
    C134    C    0.98923   0.02357   0.71946   1.000
    C135    C    0.41447   0.11681   0.66011   1.000
    C136    C    0.91447   0.11683   0.66012   1.000
    N137    N    0.27350   0.64957   0.92117   1.000
    N138    N    0.77351   0.64957   0.92117   1.000
    N139    N    0.22821   0.63868   0.98643   1.000
    N140    N    0.72822   0.63868   0.98644   1.000
    N141    N    0.25916   0.80964   0.97190   1.000
    N142    N    0.75916   0.80964   0.97192   1.000
    N143    N    0.29604   0.57295   0.78146   1.000
    N144    N    0.79604   0.57296   0.78147   1.000
    N145    N    0.34486   0.63259   0.74437   1.000
    N146    N    0.84486   0.63260   0.74437   1.000
    N147    N    0.28451   0.55009   0.64172   1.000
    N148    N    0.78451   0.55010   0.64172   1.000
    N149    N    0.47650   0.35043   0.42119   1.000
    N150    N    0.97650   0.35043   0.42120   1.000
    N151    N    0.02179   0.36135   0.48648   1.000
    N152    N    0.95394   0.42703   0.28152   1.000
    N153    N    0.40513   0.36737   0.24440   1.000
    N154    N    0.90513   0.36738   0.24441   1.000
    N155    N    0.46543   0.44992   0.14176   1.000
    N156    N    0.96542   0.44993   0.14177   1.000
    N157    N    0.22651   0.14960   0.57877   1.000
    N158    N    0.72651   0.14960   0.57877   1.000
    N159    N    0.27179   0.13872   0.51350   1.000
    N160    N    0.77180   0.13872   0.51350   1.000
    N161    N    0.24082   0.30966   0.52800   1.000
    N162    N    0.74082   0.30966   0.52800   1.000
    N163    N    0.20397   0.07299   0.71846   1.000
    N164    N    0.70398   0.07298   0.71846   1.000
    N165    N    0.15516   0.13258   0.75559   1.000
    N166    N    0.65517   0.13259   0.75559   1.000
    N167    N    0.21549   0.05005   0.85800   1.000
    N168    N    0.71549   0.05005   0.85819   1.000
    N169    N    0.02350   0.85040   0.07878   1.000
    N170    N    0.52350   0.85040   0.07877   1.000
    N171    N    0.47822   0.86126   0.01349   1.000
    N172    N    0.97821   0.86126   0.01349   1.000
    N173    N    0.00914   0.69032   0.02804   1.000
    N174    N    0.50914   0.69032   0.02804   1.000
    N175    N    0.04606   0.92704   0.21847   1.000
    N176    N    0.54606   0.92704   0.21846   1.000
    N177    N    0.09486   0.86739   0.25556   1.000
    N178    N    0.59486   0.86739   0.25556   1.000
    N179    N    0.03456   0.94994   0.35820   1.000
    N180    N    0.53457   0.94994   0.35821   1.000
    N181    N    0.22650   0.35047   0.07878   1.000
    N182    N    0.72650   0.35047   0.07878   1.000
    N183    N    0.27178   0.36136   0.01351   1.000
    N184    N    0.77179   0.36136   0.01351   1.000
    N185    N    0.24084   0.19040   0.02803   1.000
    N186    N    0.74084   0.19040   0.02803   1.000
    N187    N    0.20396   0.42708   0.21849   1.000
    N188    N    0.70396   0.42708   0.21849   1.000
    N189    N    0.15515   0.36744   0.25558   1.000
    N190    N    0.65515   0.36744   0.25558   1.000
    N191    N    0.21549   0.44994   0.35823   1.000
    N192    N    0.71549   0.44994   0.35823   1.000
    N193    N    0.02350   0.64960   0.57876   1.000
    N194    N    0.52350   0.64960   0.57875   1.000
    N195    N    0.47822   0.63869   0.51347   1.000
    N196    N    0.97821   0.63869   0.51348   1.000
    N197    N    0.00914   0.80966   0.52803   1.000
    N198    N    0.50914   0.80966   0.52800   1.000
    N199    N    0.04606   0.57301   0.71844   1.000
    N200    N    0.54606   0.57301   0.71844   1.000
    N201    N    0.09488   0.63266   0.75555   1.000
    N202    N    0.59487   0.63266   0.75555   1.000
    N203    N    0.03458   0.55011   0.85819   1.000
    N204    N    0.53457   0.55011   0.85810   1.000
    N205    N    0.75918   0.69038   0.47195   1.000
    N206    N    0.29602   0.92705   0.28149   1.000
    N207    N    0.79603   0.92705   0.28149   1.000
    N208    N    0.34484   0.86746   0.24436   1.000
    N209    N    0.84484   0.86746   0.24436   1.000
    N210    N    0.28451   0.94999   0.14175   1.000
    N211    N    0.78451   0.95000   0.14170   1.000
    N212    N    0.47650   0.14963   0.92118   1.000
    N213    N    0.97649   0.14963   0.92119   1.000
    N214    N    0.02179   0.13877   0.98647   1.000
    N215    N    0.52179   0.13877   0.98640   1.000
    N216    N    0.49086   0.30971   0.97191   1.000
    N217    N    0.99086   0.30972   0.97192   1.000
    N218    N    0.45394   0.07299   0.78149   1.000
    N219    N    0.95394   0.07300   0.78149   1.000
    N220    N    0.40514   0.13265   0.74439   1.000
    N221    N    0.90515   0.13266   0.74440   1.000
    N222    N    0.46544   0.05010   0.64174   1.000
    N223    N    0.96544   0.05011   0.64170   1.000
loop_
    _geom_bond_atom_site_label_1
    _geom_bond_atom_site_label_2
    _geom_bond_distance
    _geom_bond_site_symmetry_2
    _ccdc_geom_bond_type
    N172   N169      1.37393  1_655   S
    N172   C93       1.32837  1_554   S
    N171   N170      1.37372      .   S
    N171   C92       1.32836  1_554   S
    N183   N181      1.37371      .   S
    N183   C105      1.32833  1_554   S
    N184   N182      1.37373      .   S
    N184   C106      1.32833  1_554   S
    C64    H0        1.08301      .   S
    C64    N141      1.36923  1_554   S
    C64    N139      1.32838  1_554   S
    C65    H1        1.08301      .   S
    C65    N142      1.36909  1_554   S
    C65    N140      1.32832  1_554   S
    C130   H57       1.08300      .   S
    C130   N216      1.36921  1_554   S
    C130   N215      1.32867  1_554   S
    C129   H56       1.08302      .   S
    C129   N217      1.36927  1_454   S
    C129   N214      1.32837  1_554   S
    N185   C107      1.33766      .   S
    N185   C105      1.36909  1_554   S
    N186   C108      1.33767      .   S
    N186   C106      1.36910  1_554   S
    N174   C95       1.33766      .   S
    N174   C92       1.36921  1_554   S
    N173   C94       1.33774      .   S
    N173   C93       1.36929  1_454   S
    N170   C95       1.35026      .   S
    N182   C108      1.35030      .   S
    N181   C107      1.35029      .   S
    N169   C94       1.35026      .   S
    C108   H35       1.08388      .   S
    C107   H34       1.08385      .   S
    C95    H27       1.08380      .   S
    C94    H26       1.08380      .   S
    H54    C127      1.08478      .   S
    H55    C128      1.08479      .   S
    H15    C83       1.08534      .   S
    H14    C82       1.08479      .   S
    N211   C128      1.37095      .   S
    N211   C126      1.33467      .   S
    N210   C127      1.37080      .   S
    N210   C125      1.33398      .   S
    N155   C82       1.37081      .   S
    N155   C80       1.33398      .   S
    N156   C83       1.37077      .   S
    N156   C81       1.33398      .   S
    C127   N208      1.32583      .   S
    C128   N209      1.32583      .   S
    C83    N154      1.32590      .   S
    C82    N153      1.32575      .   S
    N176   N178      1.37541      .   S
    N176   C102      1.35012      .   S
    N175   N177      1.37535      .   S
    N175   C101      1.35003      .   S
    N188   N190      1.37536      .   S
    N188   C110      1.35006      .   S
    N187   N189      1.37536      .   S
    N187   C109      1.35006      .   S
    C126   H53       1.08575  1_565   S
    C126   N207      1.35014      .   S
    C125   H52       1.08575  1_565   S
    C125   N206      1.35013      .   S
    C80    H13       1.08584      .   S
    C80    N75       1.35011      .   S
    C81    H12       1.08599  1_655   S
    C81    N152      1.35012      .   S
    N209   N207      1.37538      .   S
    N208   N206      1.37539      .   S
    N153   N75       1.37544      .   S
    N154   N152      1.37541      .   S
    N178   C104      1.32584      .   S
    N177   C103      1.32584      .   S
    N190   C112      1.32585      .   S
    N189   C111      1.32584      .   S
    H28    C102      1.08577  1_545   S
    H29    C101      1.08589  1_645   S
    H37    C110      1.08585      .   S
    H36    C109      1.08585      .   S
    C101   N179      1.33377      .   S
    C102   N180      1.33390      .   S
    C109   N191      1.33392      .   S
    C110   N192      1.33392      .   S
    C103   N179      1.37074      .   S
    C103   H30       1.08462      .   S
    C104   N180      1.37077      .   S
    C104   H31       1.08474      .   S
    C112   N192      1.37077      .   S
    C112   H39       1.08476      .   S
    C111   N191      1.37077      .   S
    C111   H38       1.08475      .   S
    H11    C79       1.08388      .   S
    H10    C78       1.08360      .   S
    H50    C123      1.08383      .   S
    H51    C124      1.08384      .   S
    C78    N149      1.35032      .   S
    C78    N73       1.33792      .   S
    C79    N150      1.35029      .   S
    C79    N74       1.33769      .   S
    C123   N96       1.35029      .   S
    C123   N100      1.33768      .   S
    C124   N97       1.35028      .   S
    C124   N205      1.33768      .   S
    N97    N99       1.37370      .   S
    N96    N98       1.37367      .   S
    N149   N72       1.37373      .   S
    N150   N151      1.37381  1_655   S
    H16    C84       1.08307      .   S
    H40    C113      1.08309      .   S
    H17    C85       1.08297      .   S
    H41    C114      1.08297      .   S
    N73    C77       1.36901      .   S
    N74    C76       1.36909  1_655   S
    N205   C122      1.36895      .   S
    N100   C121      1.36895      .   S
    C84    N159      1.32811      .   S
    C84    N161      1.36895      .   S
    C114   N196      1.32815      .   S
    C114   N197      1.36908  1_655   S
    C113   N195      1.32809      .   S
    C113   N198      1.36876      .   S
    C85    N160      1.32812      .   S
    C85    N162      1.36896      .   S
    N98    C121      1.32811      .   S
    N99    C122      1.32810      .   S
    N72    C77       1.32813      .   S
    N151   C76       1.32815      .   S
    N195   N194      1.37371      .   S
    N196   N193      1.37381  1_655   S
    N159   N157      1.37370      .   S
    N160   N158      1.37374      .   S
    C122   H49       1.08308      .   S
    C77    H9        1.08299      .   S
    C121   H48       1.08308      .   S
    C76    H8        1.08293      .   S
    N162   C87       1.33771      .   S
    N198   C116      1.33792      .   S
    N161   C86       1.33769      .   S
    N197   C115      1.33770      .   S
    N194   C116      1.35029      .   S
    N193   C115      1.35029      .   S
    N158   C87       1.35029      .   S
    N157   C86       1.35029      .   S
    C86    H18       1.08381      .   S
    C87    H19       1.08382      .   S
    C116   H43       1.08389      .   S
    C115   H42       1.08390      .   S
    H6     C70       1.08476      .   S
    H7     C71       1.08477      .   S
    H62    C135      1.08472      .   S
    H63    C136      1.08473      .   S
    N223   C136      1.37093      .   S
    N223   C134      1.33460      .   S
    N147   C70       1.37077      .   S
    N147   C68       1.33391      .   S
    N148   C71       1.37076      .   S
    N148   C69       1.33392      .   S
    N222   C135      1.37076      .   S
    N222   C133      1.33391      .   S
    C71    N146      1.32585      .   S
    C70    N145      1.32585      .   S
    C135   N220      1.32585      .   S
    C136   N221      1.32584      .   S
    N200   N202      1.37543      .   S
    N200   C118      1.35011      .   S
    N199   N201      1.37542      .   S
    N199   C117      1.35011      .   S
    N163   N165      1.37540      .   S
    N163   C88       1.35014      .   S
    N164   N166      1.37538      .   S
    N164   C89       1.35013      .   S
    C69    H5        1.08586      .   S
    C69    N144      1.35017      .   S
    C68    H4        1.08586      .   S
    C68    N143      1.35006      .   S
    C133   H61       1.08576  1_545   S
    C133   N218      1.35014      .   S
    C134   H60       1.08589  1_645   S
    C134   N219      1.35002      .   S
    N145   N143      1.37535      .   S
    N146   N144      1.37541      .   S
    N220   N218      1.37541      .   S
    N221   N219      1.37536      .   S
    N202   C120      1.32574      .   S
    N201   C119      1.32589      .   S
    N166   C91       1.32584      .   S
    N165   C90       1.32584      .   S
    H21    C89       1.08576  1_565   S
    H20    C88       1.08575  1_565   S
    H44    C118      1.08584      .   S
    H45    C117      1.08599  1_655   S
    C89    N168      1.33383      .   S
    C88    N167      1.33123      .   S
    C117   N203      1.33397      .   S
    C118   N204      1.33274      .   S
    C120   N204      1.37054      .   S
    C120   H47       1.08479      .   S
    C119   N203      1.37079      .   S
    C119   H46       1.08469      .   S
    C90    N167      1.37015      .   S
    C90    H22       1.08479      .   S
    C91    N168      1.37075      .   S
    C91    H23       1.08478      .   S
    H59    C132      1.08426      .   S
    H58    C131      1.08381      .   S
    H2     C66       1.08388      .   S
    H3     C67       1.08388      .   S
    C132   N213      1.35027      .   S
    C132   N217      1.33776      .   S
    C131   N212      1.35026      .   S
    C131   N216      1.33771      .   S
    C66    N137      1.35028      .   S
    C66    N141      1.33748      .   S
    C67    N138      1.35029      .   S
    C67    N142      1.33768      .   S
    N138   N140      1.37372      .   S
    N137   N139      1.37365      .   S
    N212   N215      1.37310      .   S
    N213   N214      1.37386  1_655   S
    H24    C92       1.08388      .   S
    H25    C93       1.08303      .   S
    H32    C105      1.08300      .   S
    H33    C106      1.08301      .   S
