# CIF file generated by openbabel 2.4.90, see http://openbabel.sf.net
data_I
_chemical_name_common ''
_cell_length_a 13.592
_cell_length_b 22.212
_cell_length_c 22.222
_cell_angle_alpha 72.165
_cell_angle_beta 90.017
_cell_angle_gamma 89.997
_space_group_name_H-M_alt 'P 1'
_space_group_name_Hall 'P 1'
loop_
    _symmetry_equiv_pos_as_xyz
    x,y,z
loop_
    _atom_site_label
    _atom_site_type_symbol
    _atom_site_fract_x
    _atom_site_fract_y
    _atom_site_fract_z
    _atom_site_occupancy
    N0      N    0.25004   0.90657   0.09338   1.000
    N1      N    0.25008   0.36217   0.86209   1.000
    N2      N    0.24998   0.86208   0.36218   1.000
    N3      N    0.25003   0.86214   0.86216   1.000
    N4      N    0.75004   0.36211   0.36212   1.000
    N5      N    0.75009   0.36217   0.86209   1.000
    N6      N    0.75000   0.86208   0.36213   1.000
    N7      N    0.75005   0.86214   0.86216   1.000
    N8      N    0.24989   0.09338   0.40649   1.000
    N9      N    0.25000   0.09337   0.90662   1.000
    N10     N    0.24996   0.59342   0.40653   1.000
    N11     N    0.25008   0.59345   0.90658   1.000
    N12     N    0.74999   0.90652   0.59348   1.000
    N13     N    0.25002   0.36211   0.36212   1.000
    N14     N    0.74991   0.09338   0.40654   1.000
    N15     N    0.75002   0.09337   0.90662   1.000
    N16     N    0.74997   0.59342   0.40653   1.000
    N17     N    0.75010   0.59345   0.90659   1.000
    N18     N    0.75016   0.40651   0.09337   1.000
    N19     N    0.25014   0.40651   0.09337   1.000
    N20     N    0.75009   0.40650   0.59343   1.000
    N21     N    0.75006   0.90657   0.09337   1.000
    N22     N    0.25002   0.13782   0.13781   1.000
    N23     N    0.74997   0.13787   0.63778   1.000
    N24     N    0.75011   0.63778   0.13787   1.000
    N25     N    0.75004   0.63783   0.63782   1.000
    N26     N    0.24997   0.90652   0.59348   1.000
    N27     N    0.24995   0.13787   0.63778   1.000
    N28     N    0.25009   0.63778   0.13787   1.000
    N29     N    0.25002   0.63783   0.63782   1.000
    N30     N    0.75004   0.13782   0.13781   1.000
    N31     N    0.25007   0.40650   0.59343   1.000
    Zr32    Zr   0.05413   0.74996   0.00000   1.000
    O33     O    0.96811   0.71805   0.04408   1.000
    O34     O    0.11519   0.70178   0.97760   1.000
    O35     O    0.96809   0.78187   0.95593   1.000
    O36     O    0.11519   0.79816   0.02239   1.000
    Zr37    Zr   0.94593   0.99997   0.25000   1.000
    O38     O    0.88484   0.02238   0.29817   1.000
    O39     O    0.03194   0.95587   0.28192   1.000
    O40     O    0.03199   0.04404   0.21809   1.000
    O41     O    0.88489   0.97758   0.20179   1.000
    Zr42    Zr   0.05413   0.74996   0.50001   1.000
    O43     O    0.96808   0.71807   0.54407   1.000
    O44     O    0.11516   0.70177   0.47759   1.000
    O45     O    0.11518   0.79815   0.52243   1.000
    O46     O    0.96808   0.78186   0.45593   1.000
    Zr47    Zr   0.44591   0.99997   0.25000   1.000
    O48     O    0.53199   0.04404   0.21809   1.000
    O49     O    0.38482   0.02239   0.29816   1.000
    O50     O    0.53194   0.95587   0.28191   1.000
    O51     O    0.38487   0.97758   0.20179   1.000
    Zr52    Zr   0.05412   0.24998   0.49997   1.000
    O53     O    0.11520   0.29815   0.52239   1.000
    O54     O    0.11513   0.20176   0.47755   1.000
    O55     O    0.96804   0.21810   0.54402   1.000
    O56     O    0.96809   0.28188   0.45589   1.000
    Zr57    Zr   0.55414   0.74997   0.90000   1.000
    O58     O    0.46808   0.78187   0.89343   1.000
    O59     O    0.61620   0.70532   0.90170   1.000
    Zr60    Zr   0.94592   0.49997   0.24999   1.000
    O61     O    0.88485   0.52240   0.29816   1.000
    O62     O    0.03195   0.45588   0.28190   1.000
    O63     O    0.03201   0.54402   0.21810   1.000
    O64     O    0.88491   0.47755   0.20178   1.000
    Zr65    Zr   0.94593   0.50001   0.74999   1.000
    O66     O    0.03198   0.54407   0.71808   1.000
    O67     O    0.88489   0.47757   0.70180   1.000
    O68     O    0.03198   0.45593   0.78188   1.000
    O69     O    0.88489   0.52243   0.79818   1.000
    Zr70    Zr   0.44591   0.00003   0.75000   1.000
    O71     O    0.53195   0.04410   0.71807   1.000
    O72     O    0.38486   0.02241   0.79820   1.000
    O73     O    0.53197   0.95594   0.78190   1.000
    O74     O    0.38484   0.97759   0.70182   1.000
    Zr75    Zr   0.55413   0.24999   0.99996   1.000
    O76     O    0.61516   0.20177   0.97759   1.000
    O77     O    0.61523   0.29816   0.02237   1.000
    O78     O    0.46805   0.21809   0.04402   1.000
    O79     O    0.46811   0.28190   0.95587   1.000
    Zr80    Zr   0.55414   0.24998   0.49997   1.000
    O81     O    0.46810   0.28188   0.45589   1.000
    O82     O    0.46804   0.21810   0.54402   1.000
    O83     O    0.61515   0.20176   0.47757   1.000
    O84     O    0.61522   0.29815   0.52239   1.000
    Zr85    Zr   0.55415   0.74996   0.50001   1.000
    O86     O    0.61518   0.70177   0.47759   1.000
    O87     O    0.46808   0.71807   0.54407   1.000
    O88     O    0.46809   0.78186   0.45594   1.000
    O89     O    0.61520   0.79815   0.52243   1.000
    Zr90    Zr   0.44591   0.49997   0.24999   1.000
    O91     O    0.53201   0.54402   0.21810   1.000
    O92     O    0.38483   0.52240   0.29816   1.000
    O93     O    0.38490   0.47755   0.20178   1.000
    O94     O    0.53195   0.45588   0.28190   1.000
    Zr95    Zr   0.44591   0.50001   0.74999   1.000
    O96     O    0.38487   0.52243   0.79818   1.000
    O97     O    0.53197   0.54407   0.71808   1.000
    O98     O    0.38487   0.47757   0.70180   1.000
    O99     O    0.53198   0.45593   0.78188   1.000
    Zr100   Zr   0.94593   0.00003   0.75000   1.000
    O101    O    0.03195   0.04410   0.71807   1.000
    O102    O    0.03198   0.95594   0.78190   1.000
    O103    O    0.88488   0.02241   0.79820   1.000
    O104    O    0.88486   0.97759   0.70183   1.000
    Zr105   Zr   0.05411   0.24999   0.99996   1.000
    O106    O    0.96805   0.21809   0.04402   1.000
    O107    O    0.11521   0.29816   0.02237   1.000
    O108    O    0.11515   0.20177   0.97759   1.000
    O109    O    0.96810   0.28190   0.95587   1.000
loop_
    _geom_bond_atom_site_label_1
    _geom_bond_atom_site_label_2
    _geom_bond_distance
    _geom_bond_site_symmetry_2
    _ccdc_geom_bond_type
    Zr32   O33       1.55065  1_455   S
    N24    O33       3.74566      .   S
    Zr32   O34       1.55188  1_554   S
    N11    O34       3.73751      .   S
    Zr32   O35       1.55020  1_454   S
    N7     O35       3.74488      .   S
    Zr32   O36       1.55207      .   S
    N0     O36       3.73785      .   S
    Zr37   O38       1.55239  1_565   S
    N14    O38       3.73862      .   S
    Zr37   O39       1.55026  1_655   S
    N2     O39       3.74484      .   S
    Zr37   O40       1.55069  1_665   S
    N22    O40       3.74587      .   S
    Zr37   O41       1.55229      .   S
    N21    O41       3.73836      .   S
    Zr42   O43       1.55059  1_455   S
    N25    O43       3.74567      .   S
    Zr42   O44       1.55207      .   S
    N10    O44       3.73783      .   S
    Zr42   O45       1.55203      .   S
    N26    O45       3.73776      .   S
    Zr42   O46       1.55038  1_455   S
    N6     O46       3.74523      .   S
    Zr47   O48       1.55082  1_565   S
    N30    O48       3.74611      .   S
    Zr47   O49       1.55219  1_565   S
    N8     O49       3.73802      .   S
    Zr47   O50       1.55034      .   S
    N6     O50       3.74486      .   S
    Zr47   O51       1.55227      .   S
    N0     O51       3.73829      .   S
    Zr52   O53       1.55200      .   S
    N31    O53       3.73766      .   S
    Zr52   O54       1.55222      .   S
    N8     O54       3.73832      .   S
    Zr52   O55       1.55071  1_455   S
    N23    O55       3.74590      .   S
    Zr52   O56       1.55019  1_455   S
    N4     O56       3.74474      .   S
    Zr57   O58       1.35205      .   S
    N3     O58       3.41831      .   S
    Zr57   O59       1.29358      .   S
    N17    O59       3.05491      .   S
    Zr60   O61       1.55254      .   S
    N16    O61       3.73883      .   S
    Zr60   O62       1.55016  1_655   S
    N13    O62       3.74468      .   S
    Zr60   O63       1.55070  1_655   S
    N28    O63       3.74590      .   S
    Zr60   O64       1.55229      .   S
    N18    O64       3.73828      .   S
    Zr65   O66       1.55057  1_655   S
    N29    O66       3.74561      .   S
    Zr65   O67       1.55233      .   S
    N20    O67       3.73837      .   S
    Zr65   O68       1.55025  1_655   S
    N1     O68       3.74488      .   S
    Zr65   O69       1.55252      .   S
    N17    O69       3.73882      .   S
    Zr70   O71       1.55071      .   S
    N23    O71       3.74573      .   S
    Zr70   O72       1.55237      .   S
    N9     O72       3.73862      .   S
    Zr70   O73       1.55052  1_545   S
    N7     O73       3.74534      .   S
    Zr70   O74       1.55228  1_545   S
    N26    O74       3.73830      .   S
    Zr75   O76       1.55202      .   S
    N15    O76       3.73777      .   S
    Zr75   O77       1.55199  1_556   S
    N18    O77       3.73765      .   S
    Zr75   O78       1.55084  1_556   S
    N22    O78       3.74608      .   S
    Zr75   O79       1.55023      .   S
    N1     O79       3.74483      .   S
    Zr80   O81       1.55033      .   S
    N13    O81       3.74499      .   S
    Zr80   O82       1.55085      .   S
    N27    O82       3.74614      .   S
    Zr80   O83       1.55209      .   S
    N14    O83       3.73785      .   S
    Zr80   O84       1.55201      .   S
    N20    O84       3.73769      .   S
    Zr85   O86       1.55207      .   S
    N16    O86       3.73782      .   S
    Zr85   O87       1.55073      .   S
    N29    O87       3.74591      .   S
    Zr85   O88       1.55040      .   S
    N2     O88       3.74518      .   S
    Zr85   O89       1.55203      .   S
    N12    O89       3.73777      .   S
    Zr90   O91       1.55084      .   S
    N24    O91       3.74615      .   S
    Zr90   O92       1.55254      .   S
    N10    O92       3.73882      .   S
    Zr90   O93       1.55229      .   S
    N19    O93       3.73828      .   S
    Zr90   O94       1.55030      .   S
    N4     O94       3.74493      .   S
    Zr95   O96       1.55248      .   S
    N11    O96       3.73870      .   S
    Zr95   O97       1.55070      .   S
    N25    O97       3.74586      .   S
    Zr95   O98       1.55234      .   S
    N31    O98       3.73840      .   S
    Zr95   O99       1.55038      .   S
    N5     O99       3.74510      .   S
    Zr100  O101      1.55057  1_655   S
    N27    O101      3.74549      .   S
    Zr100  O102      1.55038  1_645   S
    N3     O102      3.74513      .   S
    Zr100  O103      1.55237      .   S
    N15    O103      3.73862      .   S
    Zr100  O104      1.55228  1_545   S
    N12    O104      3.73828      .   S
    Zr105  O106      1.55070  1_456   S
    N30    O106      3.74584      .   S
    Zr105  O107      1.55198  1_556   S
    N19    O107      3.73765      .   S
    Zr105  O108      1.55202      .   S
    N9     O108      3.73777      .   S
    Zr105  O109      1.55011  1_455   S
    N5     O109      3.74462      .   S
