# CIF file generated by openbabel 2.4.90, see http://openbabel.sf.net
data_I
_chemical_name_common ''
_cell_length_a 9.73
_cell_length_b 13.257
_cell_length_c 20.935
_cell_angle_alpha 86.324
_cell_angle_beta 80.17
_cell_angle_gamma 68.899
_space_group_name_H-M_alt 'P 1'
_space_group_name_Hall 'P 1'
loop_
    _symmetry_equiv_pos_as_xyz
    x,y,z
loop_
    _atom_site_label
    _atom_site_type_symbol
    _atom_site_fract_x
    _atom_site_fract_y
    _atom_site_fract_z
    _atom_site_occupancy
    H0      H    0.38983   0.64540   0.04673   1.000
    H1      H    0.37014   0.49600   0.12312   1.000
    H2      H    0.84464   0.40305   0.12541   1.000
    H3      H    0.84487   0.55116   0.04892   1.000
    H4      H    0.76257   0.33109   0.22800   1.000
    H5      H    0.78590   0.24074   0.16272   1.000
    H6      H    0.51368   0.11513   0.24281   1.000
    H7      H    0.53274   0.19849   0.17303   1.000
    H8      H    0.92030   0.87793   0.13812   1.000
    H9      H    0.87997   0.75276   0.06534   1.000
    H10     H    0.44280   0.95552   0.06219   1.000
    H11     H    0.46402   0.08991   0.13176   1.000
    H12     H    0.77477   0.85655   0.80779   1.000
    H13     H    0.96588   0.50998   0.81364   1.000
    H14     H    0.05793   0.84523   0.92673   1.000
    H15     H    0.19367   0.00000   0.06065   1.000
    H16     H    0.46369   0.64338   0.45569   1.000
    H17     H    0.63456   0.49508   0.38022   1.000
    H18     H    0.25374   0.40336   0.36993   1.000
    H19     H    0.10334   0.54995   0.44606   1.000
    H20     H    0.41086   0.32948   0.27130   1.000
    H21     H    0.47586   0.23974   0.33717   1.000
    H22     H    0.87236   0.11623   0.25838   1.000
    H23     H    0.77106   0.20049   0.32746   1.000
    H24     H    0.70086   0.87796   0.36224   1.000
    H25     H    0.86646   0.75064   0.43362   1.000
    H26     H    0.10266   0.95435   0.43835   1.000
    H27     H    0.94715   0.09079   0.36990   1.000
    H28     H    0.86469   0.85369   0.68874   1.000
    H29     H    0.04135   0.50673   0.69258   1.000
    H30     H    0.59658   0.84396   0.57259   1.000
    H31     H    0.29667   0.00000   0.44008   1.000
    H32     H    0.61011   0.35467   0.95327   1.000
    H33     H    0.62978   0.50407   0.87688   1.000
    H34     H    0.15528   0.59700   0.87461   1.000
    H35     H    0.15507   0.44890   0.95109   1.000
    H36     H    0.23733   0.66899   0.77201   1.000
    H37     H    0.21402   0.75933   0.83729   1.000
    H38     H    0.48624   0.88494   0.75720   1.000
    H39     H    0.46717   0.80158   0.82699   1.000
    H40     H    0.07963   0.12215   0.86189   1.000
    H41     H    0.11996   0.24731   0.93467   1.000
    H42     H    0.55713   0.04454   0.93783   1.000
    H43     H    0.53590   0.91015   0.86825   1.000
    H44     H    0.22515   0.14350   0.19223   1.000
    H45     H    0.03408   0.49007   0.18637   1.000
    H46     H    0.94201   0.15484   0.07328   1.000
    H47     H    0.80626   0.99167   0.93936   1.000
    H48     H    0.53620   0.35668   0.54432   1.000
    H49     H    0.36533   0.50500   0.61979   1.000
    H50     H    0.74616   0.59670   0.63008   1.000
    H51     H    0.89656   0.45011   0.55395   1.000
    H52     H    0.58904   0.67058   0.72870   1.000
    H53     H    0.52405   0.76034   0.66284   1.000
    H54     H    0.12755   0.88386   0.74163   1.000
    H55     H    0.22884   0.79959   0.67255   1.000
    H56     H    0.29905   0.12212   0.63777   1.000
    H57     H    0.13344   0.24944   0.56638   1.000
    H58     H    0.89726   0.04571   0.56166   1.000
    H59     H    0.05277   0.90929   0.63011   1.000
    H60     H    0.13522   0.14637   0.31128   1.000
    H61     H    0.95858   0.49333   0.30742   1.000
    H62     H    0.40334   0.15610   0.42741   1.000
    H63     H    0.70324   0.99121   0.55993   1.000
    C64     C    0.48627   0.59079   0.06668   1.000
    C65     C    0.47565   0.50872   0.10885   1.000
    C66     C    0.60348   0.44073   0.13340   1.000
    C67     C    0.73966   0.45486   0.11089   1.000
    C68     C    0.74055   0.53900   0.06798   1.000
    C69     C    0.70736   0.28966   0.20299   1.000
    C70     C    0.58980   0.14849   0.21129   1.000
    C71     C    0.69392   0.99281   0.14343   1.000
    C72     C    0.81209   0.89649   0.12309   1.000
    C73     C    0.78979   0.82728   0.08248   1.000
    C74     C    0.54620   0.94105   0.08066   1.000
    C75     C    0.55818   0.01479   0.12122   1.000
    C76     C    0.86440   0.68322   0.81830   1.000
    C77     C    0.83523   0.77995   0.78263   1.000
    C78     C    0.94178   0.58479   0.78559   1.000
    C79     C    0.14164   0.91741   0.99276   1.000
    C80     C    0.03152   0.91365   0.95862   1.000
    C81     C    0.10817   0.00000   0.03442   1.000
    C82     C    0.42246   0.58941   0.43420   1.000
    C83     C    0.51617   0.50793   0.39248   1.000
    C84     C    0.45717   0.44051   0.36608   1.000
    C85     C    0.30636   0.45460   0.38631   1.000
    C86     C    0.22027   0.53809   0.42895   1.000
    C87     C    0.50622   0.28900   0.29687   1.000
    C88     C    0.76343   0.14976   0.28967   1.000
    C89     C    0.81335   0.99345   0.35773   1.000
    C90     C    0.79085   0.89634   0.37737   1.000
    C91     C    0.88249   0.82594   0.41723   1.000
    C92     C    0.01334   0.94019   0.41982   1.000
    C93     C    0.92760   0.01514   0.37996   1.000
    C94     C    0.95910   0.67979   0.68312   1.000
    C95     C    0.88474   0.77835   0.71605   1.000
    C96     C    0.98531   0.58301   0.71858   1.000
    C97     C    0.44012   0.91700   0.50729   1.000
    C98     C    0.55468   0.91297   0.54103   1.000
    C99     C    0.38636   0.00000   0.46598   1.000
    C100    C    0.51366   0.40927   0.93333   1.000
    C101    C    0.52428   0.49134   0.89116   1.000
    C102    C    0.39644   0.55933   0.86661   1.000
    C103    C    0.26027   0.54520   0.88912   1.000
    C104    C    0.25938   0.46105   0.93203   1.000
    C105    C    0.29255   0.71041   0.79702   1.000
    C106    C    0.41012   0.85158   0.78872   1.000
    C107    C    0.30600   0.00726   0.85658   1.000
    C108    C    0.18783   0.10358   0.87692   1.000
    C109    C    0.21014   0.17279   0.91753   1.000
    C110    C    0.45372   0.05901   0.91935   1.000
    C111    C    0.44174   0.98527   0.87879   1.000
    C112    C    0.13554   0.31683   0.18172   1.000
    C113    C    0.16470   0.22010   0.21739   1.000
    C114    C    0.05816   0.41526   0.21442   1.000
    C115    C    0.85829   0.08266   0.00726   1.000
    C116    C    0.96842   0.08641   0.04139   1.000
    C117    C    0.89176   0.99532   0.96559   1.000
    C118    C    0.57744   0.41066   0.56582   1.000
    C119    C    0.48373   0.49215   0.60753   1.000
    C120    C    0.54273   0.55957   0.63392   1.000
    C121    C    0.69354   0.54547   0.61370   1.000
    C122    C    0.77963   0.46198   0.57106   1.000
    C123    C    0.49368   0.71107   0.70313   1.000
    C124    C    0.23648   0.85032   0.71034   1.000
    C125    C    0.18656   0.00662   0.64228   1.000
    C126    C    0.20906   0.10374   0.62264   1.000
    C127    C    0.11742   0.17414   0.58277   1.000
    C128    C    0.98658   0.05988   0.58019   1.000
    C129    C    0.07232   0.98493   0.62004   1.000
    C130    C    0.04083   0.32027   0.31690   1.000
    C131    C    0.11518   0.22171   0.28396   1.000
    C132    C    0.01463   0.41705   0.28143   1.000
    C133    C    0.55979   0.08306   0.49271   1.000
    C134    C    0.44523   0.08709   0.45898   1.000
    C135    C    0.61355   0.99506   0.53402   1.000
    C136    C    0.64252   0.21796   0.25022   1.000
    C137    C    0.35739   0.78212   0.74979   1.000
    N138    N    0.61627   0.60831   0.04694   1.000
    N139    N    0.65817   0.84756   0.06125   1.000
    N140    N    0.27474   0.60683   0.45176   1.000
    N141    N    0.99443   0.84581   0.43848   1.000
    N142    N    0.38367   0.39174   0.95307   1.000
    N143    N    0.34176   0.15250   0.93877   1.000
    N144    N    0.72515   0.39324   0.54826   1.000
    N145    N    0.00549   0.15426   0.56153   1.000
    O146    O    0.58210   0.36776   0.17787   1.000
    O147    O    0.71897   0.05926   0.18266   1.000
    O148    O    0.55251   0.36804   0.32216   1.000
    O149    O    0.72174   0.06080   0.31912   1.000
    O150    O    0.41781   0.63231   0.82214   1.000
    O151    O    0.28095   0.94081   0.81735   1.000
    O152    O    0.44738   0.63204   0.67785   1.000
    O153    O    0.27818   0.93928   0.68089   1.000
loop_
    _geom_bond_atom_site_label_1
    _geom_bond_atom_site_label_2
    _geom_bond_distance
    _geom_bond_site_symmetry_2
    _ccdc_geom_bond_type
    C115   C116      1.40204      .   S
    C115   C117      1.40302  1_544   S
    C81    C116      1.41944  1_455   S
    C81    H15       1.07221      .   S
    C81    C79       1.35445  1_544   S
    C116   H46       1.08896      .   S
    H0     C64       1.08859      .   S
    N138   C64       1.35842      .   S
    N138   C68       1.35301      .   S
    H3     C68       1.08928      .   S
    N139   C74       1.35259      .   S
    N139   C73       1.35683      .   S
    H10    C74       1.08774      .   S
    H9     C73       1.09020      .   S
    C64    C65       1.37856      .   S
    C68    C67       1.38828      .   S
    C74    C75       1.38292  1_565   S
    C73    C72       1.38498      .   S
    C65    H1        1.08865      .   S
    C65    C66       1.40544      .   S
    C67    H2        1.08699      .   S
    C67    C66       1.40247      .   S
    C75    H11       1.08724      .   S
    C75    C71       1.40015  1_545   S
    C72    H8        1.08840      .   S
    C72    C71       1.40686      .   S
    C66    O146      1.34509      .   S
    C71    O147      1.35125  1_565   S
    H5     C69       1.09935      .   S
    H7     C70       1.09906      .   S
    O146   C69       1.44020      .   S
    C112   C114      1.40339      .   S
    C112   C113      1.40365      .   S
    O147   C70       1.44962      .   S
    H45    C114      1.09016      .   S
    H44    C113      1.08965      .   S
    C69    H4        1.09998      .   S
    C69    C136      1.54193      .   S
    C70    H6        1.10054      .   S
    C70    C136      1.53445      .   S
    C114   C132      1.39352      .   S
    C113   C131      1.39363      .   S
    C136   C88       1.53426      .   S
    C136   C87       1.54148      .   S
    H22    C88       1.10053      .   S
    H20    C87       1.09986      .   S
    C132   H61       1.09006  1_455   S
    C132   C130      1.40330      .   S
    C131   H60       1.08962      .   S
    C131   C130      1.40373      .   S
    C88    O149      1.44954      .   S
    C88    H23       1.09900      .   S
    C87    O148      1.43987      .   S
    C87    H21       1.09937      .   S
    O149   C89       1.35115  1_545   S
    O148   C84       1.34520      .   S
    C89    C90       1.40667      .   S
    C89    C93       1.39963  1_565   S
    H24    C90       1.08840      .   S
    C84    C85       1.40286      .   S
    C84    C83       1.40532      .   S
    H27    C93       1.08758      .   S
    H18    C85       1.08688      .   S
    C90    C91       1.38486      .   S
    C93    C92       1.38348  1_645   S
    H17    C83       1.08872      .   S
    C85    C86       1.38819      .   S
    C83    C82       1.37867      .   S
    C91    H25       1.09023      .   S
    C91    N141      1.35660      .   S
    C92    H26       1.08760      .   S
    C92    N141      1.35298  1_455   S
    H62    C134      1.08897      .   S
    C86    H19       1.08933      .   S
    C86    N140      1.35258      .   S
    C82    N140      1.35854      .   S
    C82    H16       1.08866      .   S
    H31    C99       1.10332      .   S
    C134   C99       1.45212      .   S
    C134   C133      1.40181      .   S
    C99    C97       1.36022  1_545   S
    C133   C135      1.40294  1_545   S
    C97    C98       1.40182      .   S
    C135   C98       1.39054      .   S
    C135   H63       1.08828      .   S
    C98    H30       1.08897      .   S
    H48    C118      1.08867      .   S
    N144   C118      1.35855      .   S
    N144   C122      1.35260      .   S
    H51    C122      1.08932      .   S
    N145   C128      1.35298  1_455   S
    N145   C127      1.35654      .   S
    H58    C128      1.08763      .   S
    C118   C119      1.37866      .   S
    H57    C127      1.09025      .   S
    C122   C121      1.38819      .   S
    C128   C129      1.38344  1_645   S
    C127   C126      1.38486      .   S
    C119   H49       1.08871      .   S
    C119   C120      1.40532      .   S
    C121   H50       1.08689      .   S
    C121   C120      1.40285      .   S
    C129   H59       1.08760      .   S
    C129   C125      1.39962  1_565   S
    C126   H56       1.08841      .   S
    C126   C125      1.40669      .   S
    C120   O152      1.34521      .   S
    C125   O153      1.35117  1_545   S
    H53    C123      1.09937      .   S
    H55    C124      1.09899      .   S
    O152   C123      1.43985      .   S
    O153   C124      1.44955      .   S
    C94    C95       1.40373      .   S
    C94    C96       1.40328      .   S
    H28    C95       1.08962      .   S
    H29    C96       1.09012  1_455   S
    C123   H52       1.09987      .   S
    C123   C137      1.54146      .   S
    C124   H54       1.10053      .   S
    C124   C137      1.53429      .   S
    C95    C77       1.39363      .   S
    C96    C78       1.39351      .   S
    C137   C106      1.53445      .   S
    C137   C105      1.54197      .   S
    H38    C106      1.10053      .   S
    H36    C105      1.09997      .   S
    C77    H12       1.08965      .   S
    C77    C76       1.40365      .   S
    C78    H13       1.09015      .   S
    C78    C76       1.40340      .   S
    C106   O151      1.44961      .   S
    C106   H39       1.09906      .   S
    C105   O150      1.44021      .   S
    C105   H37       1.09934      .   S
    O151   C107      1.35126  1_565   S
    O150   C102      1.34510      .   S
    C107   C108      1.40686      .   S
    C107   C111      1.40016  1_545   S
    H40    C108      1.08838      .   S
    C102   C103      1.40247      .   S
    C102   C101      1.40543      .   S
    H43    C111      1.08724      .   S
    H34    C103      1.08699      .   S
    H33    C101      1.08864      .   S
    C108   C109      1.38500      .   S
    C111   C110      1.38290  1_565   S
    C103   C104      1.38830      .   S
    C101   C100      1.37858      .   S
    C109   H41       1.09019      .   S
    C109   N143      1.35682      .   S
    C110   H42       1.08775      .   S
    C110   N143      1.35259      .   S
    H14    C80       1.08898      .   S
    C104   H35       1.08927      .   S
    C104   N142      1.35301      .   S
    C100   N142      1.35842      .   S
    C100   H32       1.08859      .   S
    H47    C117      1.08833      .   S
    C80    C117      1.39107  1_455   S
    C80    C79       1.40204      .   S
