# CIF file generated by openbabel 2.4.90, see http://openbabel.sf.net
data_I
_chemical_name_common ''
_cell_length_a 13.941
_cell_length_b 20.677
_cell_length_c 22.214
_cell_angle_alpha 89.995
_cell_angle_beta 90.511
_cell_angle_gamma 101.284
_space_group_name_H-M_alt 'P 1'
_space_group_name_Hall 'P 1'
loop_
    _symmetry_equiv_pos_as_xyz
    x,y,z
loop_
    _atom_site_label
    _atom_site_type_symbol
    _atom_site_fract_x
    _atom_site_fract_y
    _atom_site_fract_z
    _atom_site_occupancy
    Zr0     Zr   0.66702   0.34186   0.98955   1.000
    Zr1     Zr   0.87496   0.36722   0.01032   1.000
    Zr2     Zr   0.66706   0.84199   0.51029   1.000
    Zr3     Zr   0.87476   0.86717   0.49195   1.000
    Zr4     Zr   0.33297   0.15802   0.48970   1.000
    Zr5     Zr   0.12526   0.13285   0.50803   1.000
    Zr6     Zr   0.33302   0.65816   0.01043   1.000
    Zr7     Zr   0.12507   0.63279   0.98966   1.000
    O8      O    0.77099   0.35454   0.99994   1.000
    O9      O    0.77091   0.85458   0.50112   1.000
    O10     O    0.22912   0.14544   0.49887   1.000
    O11     O    0.22904   0.64547   0.00005   1.000
    N12     N    0.74525   0.58933   0.26200   1.000
    O13     O    0.70700   0.69540   0.37252   1.000
    O14     O    0.80498   0.49483   0.15309   1.000
    O15     O    0.79884   0.70945   0.36147   1.000
    O16     O    0.71198   0.47934   0.14598   1.000
    N17     N    0.79504   0.62316   0.76417   1.000
    O18     O    0.74175   0.50426   0.86460   1.000
    O19     O    0.83504   0.51382   0.87167   1.000
    O20     O    0.73616   0.71931   0.65610   1.000
    O21     O    0.82818   0.72837   0.64553   1.000
    N22     N    0.27198   0.35652   0.00349   1.000
    O23     O    0.11041   0.36207   0.00760   1.000
    O24     O    0.43274   0.34942   0.99698   1.000
    N25     N    0.20464   0.87617   0.26350   1.000
    O26     O    0.25762   0.99530   0.36430   1.000
    O27     O    0.16438   0.98582   0.37015   1.000
    O28     O    0.26380   0.78041   0.15580   1.000
    O29     O    0.17171   0.77128   0.14422   1.000
    N30     N    0.25427   0.91060   0.76119   1.000
    O31     O    0.29248   0.80457   0.87216   1.000
    O32     O    0.19513   0.00515   0.65149   1.000
    O33     O    0.20043   0.79061   0.86027   1.000
    O34     O    0.28810   0.02062   0.64561   1.000
    N35     N    0.72816   0.14329   0.50358   1.000
    O36     O    0.88987   0.13791   0.50678   1.000
    O37     O    0.56728   0.15032   0.49726   1.000
    N38     N    0.72806   0.64350   0.99648   1.000
    O39     O    0.88963   0.63795   0.99238   1.000
    O40     O    0.56730   0.65060   0.00298   1.000
    N41     N    0.20505   0.37687   0.23580   1.000
    O42     O    0.25832   0.49577   0.13538   1.000
    O43     O    0.16503   0.48620   0.12830   1.000
    O44     O    0.26390   0.28071   0.34388   1.000
    O45     O    0.17188   0.27166   0.35444   1.000
    N46     N    0.25478   0.41068   0.73798   1.000
    O47     O    0.29303   0.30461   0.62744   1.000
    O48     O    0.19505   0.50518   0.84689   1.000
    O49     O    0.20119   0.29056   0.63851   1.000
    O50     O    0.28805   0.52067   0.85401   1.000
    N51     N    0.27177   0.85674   0.49639   1.000
    O52     O    0.11011   0.86211   0.49318   1.000
    O53     O    0.43270   0.84970   0.50272   1.000
    N54     N    0.79539   0.12385   0.73648   1.000
    O55     O    0.74241   0.00471   0.63568   1.000
    O56     O    0.83565   0.01420   0.62984   1.000
    O57     O    0.73623   0.21961   0.84418   1.000
    O58     O    0.82832   0.22873   0.85576   1.000
    N59     N    0.74577   0.08942   0.23878   1.000
    O60     O    0.70756   0.19544   0.12780   1.000
    O61     O    0.80490   0.99487   0.34849   1.000
    O62     O    0.79961   0.20941   0.13970   1.000
    O63     O    0.71193   0.97940   0.35438   1.000
loop_
    _geom_bond_atom_site_label_1
    _geom_bond_atom_site_label_2
    _geom_bond_distance
    _geom_bond_site_symmetry_2
    _ccdc_geom_bond_type
    Zr0    O8        1.43817      .   S
    Zr1    O8        1.43817  1_554   S
    Zr2    O9        1.43639      .   S
    Zr3    O9        1.43639      .   S
    Zr4    O10       1.43638      .   S
    Zr5    O10       1.43638      .   S
    Zr6    O11       1.43818      .   S
    Zr7    O11       1.43818  1_556   S
    N12    O13       3.40653      .   S
    Zr2    O13       4.42218      .   S
    N12    O14       3.32233      .   S
    Zr1    O14       4.36305      .   S
    N12    O15       3.29473      .   S
    Zr3    O15       4.33036      .   S
    N12    O16       3.40536      .   S
    Zr0    O16       4.45130  1_556   S
    N17    O18       3.29951      .   S
    Zr0    O18       4.32966      .   S
    N17    O19       3.40500      .   S
    Zr1    O19       4.42846  1_554   S
    N17    O20       3.31542      .   S
    Zr2    O20       4.33056      .   S
    N17    O21       3.39392      .   S
    Zr3    O21       4.42793      .   S
    N22    O23       2.28027      .   S
    Zr1    O23       3.30593  1_655   S
    N22    O24       2.28029  1_554   S
    Zr0    O24       3.30583      .   S
    N25    O26       3.29950      .   S
    Zr4    O26       4.33011  1_545   S
    N25    O27       3.40449      .   S
    Zr5    O27       4.42735  1_545   S
    N25    O28       3.31649      .   S
    Zr6    O28       4.33141      .   S
    N25    O29       3.39476      .   S
    Zr7    O29       4.43225  1_556   S
    N30    O31       3.40571      .   S
    Zr6    O31       4.42227  1_554   S
    N30    O32       3.32169  1_565   S
    Zr5    O32       4.36198      .   S
    N30    O33       3.29603      .   S
    Zr7    O33       4.32705      .   S
    N30    O34       3.40448  1_565   S
    Zr4    O34       4.44963      .   S
    N35    O36       2.27926      .   S
    Zr5    O36       3.30350  1_455   S
    N35    O37       2.27885      .   S
    Zr4    O37       3.30419      .   S
    N38    O39       2.28024      .   S
    Zr7    O39       3.30587  1_455   S
    N38    O40       2.28029  1_556   S
    Zr6    O40       3.30593      .   S
    N41    O42       3.29943      .   S
    Zr6    O42       4.32941      .   S
    N41    O43       3.40485      .   S
    Zr7    O43       4.42843  1_556   S
    N41    O44       3.31554      .   S
    Zr4    O44       4.33067      .   S
    N41    O45       3.39412      .   S
    Zr5    O45       4.42808      .   S
    N46    O47       3.40675      .   S
    Zr4    O47       4.42179      .   S
    N46    O48       3.32238      .   S
    Zr7    O48       4.36299      .   S
    N46    O49       3.29468      .   S
    Zr5    O49       4.33039      .   S
    N46    O50       3.40542      .   S
    Zr6    O50       4.45134  1_554   S
    N51    O52       2.27860      .   S
    Zr3    O52       3.30285  1_655   S
    N51    O53       2.27953      .   S
    Zr2    O53       3.30487      .   S
    N54    O55       3.29950      .   S
    Zr2    O55       4.33005  1_565   S
    N54    O56       3.40446      .   S
    Zr3    O56       4.42741  1_565   S
    N54    O57       3.31652      .   S
    Zr0    O57       4.33140      .   S
    N54    O58       3.39479      .   S
    Zr1    O58       4.43216  1_554   S
    N59    O60       3.40596      .   S
    Zr0    O60       4.42203  1_556   S
    N59    O61       3.32172  1_545   S
    Zr3    O61       4.36200      .   S
    N59    O62       3.29596      .   S
    Zr1    O62       4.32696      .   S
    N59    O63       3.40462  1_545   S
    Zr2    O63       4.44979      .   S
