# CIF file generated by openbabel 2.4.90, see http://openbabel.sf.net
data_I
_chemical_name_common ''
_cell_length_a 14.357
_cell_length_b 15.243
_cell_length_c 16.405
_cell_angle_alpha 89.997
_cell_angle_beta 90.004
_cell_angle_gamma 97.449
_space_group_name_H-M_alt 'P 1'
_space_group_name_Hall 'P 1'
loop_
    _symmetry_equiv_pos_as_xyz
    x,y,z
loop_
    _atom_site_label
    _atom_site_type_symbol
    _atom_site_fract_x
    _atom_site_fract_y
    _atom_site_fract_z
    _atom_site_occupancy
    Zn0     Zn   0.59772   0.66241   0.49300   1.000
    Zn1     Zn   0.09349   0.47796   0.37500   1.000
    Zn2     Zn   0.59355   0.47794   0.37499   1.000
    Zn3     Zn   0.15245   0.83769   0.99328   1.000
    Zn4     Zn   0.65245   0.83763   0.99332   1.000
    Zn5     Zn   0.15664   0.02215   0.87503   1.000
    Zn6     Zn   0.65669   0.02212   0.87502   1.000
    Zn7     Zn   0.40229   0.33759   0.50659   1.000
    Zn8     Zn   0.90220   0.33758   0.50664   1.000
    Zn9     Zn   0.40645   0.52205   0.62500   1.000
    Zn10    Zn   0.90652   0.52204   0.62499   1.000
    Zn11    Zn   0.34756   0.16238   0.00666   1.000
    Zn12    Zn   0.84756   0.16231   0.00671   1.000
    Zn13    Zn   0.34332   0.97788   0.12496   1.000
    Zn14    Zn   0.84337   0.97784   0.12495   1.000
    Zn15    Zn   0.24998   0.50000   0.50000   1.000
    Zn16    Zn   0.75003   0.50000   0.49999   1.000
    Zn17    Zn   0.00000   0.00000   0.99999   1.000
    Zn18    Zn   0.50000   0.00000   0.99999   1.000
    H19     H    0.41958   0.49868   0.46392   1.000
    H20     H    0.91960   0.49865   0.46390   1.000
    H21     H    0.33030   0.00130   0.96395   1.000
    H22     H    0.83032   0.00124   0.96392   1.000
    H23     H    0.08041   0.50134   0.53600   1.000
    Zn24    Zn   0.09781   0.66242   0.49335   1.000
    H25     H    0.58043   0.50131   0.53607   1.000
    H26     H    0.16969   0.99876   0.03606   1.000
    H27     H    0.66972   0.99871   0.03604   1.000
    C28     C    0.48672   0.62534   0.34230   1.000
    C29     C    0.98715   0.62564   0.34228   1.000
    C30     C    0.26861   0.58655   0.33347   1.000
    C31     C    0.76883   0.58666   0.33357   1.000
    C32     C    0.26942   0.78501   0.09673   1.000
    C33     C    0.76938   0.78482   0.09674   1.000
    C34     C    0.47948   0.81924   0.09833   1.000
    C35     C    0.97956   0.81928   0.09829   1.000
    C36     C    0.26340   0.87495   0.84217   1.000
    C37     C    0.76351   0.87482   0.84223   1.000
    C38     C    0.48148   0.91411   0.83329   1.000
    C39     C    0.98154   0.91393   0.83334   1.000
    C40     C    0.48104   0.71538   0.59686   1.000
    C41     C    0.98106   0.71507   0.59694   1.000
    C42     C    0.27074   0.68060   0.59864   1.000
    C43     C    0.77081   0.68056   0.59860   1.000
    C44     C    0.01286   0.37435   0.65771   1.000
    C45     C    0.51329   0.37467   0.65769   1.000
    C46     C    0.23118   0.41334   0.66642   1.000
    C47     C    0.73140   0.41346   0.66653   1.000
    C48     C    0.23064   0.21519   0.90324   1.000
    C49     C    0.73060   0.21500   0.90326   1.000
    C50     C    0.02045   0.18071   0.90170   1.000
    C51     C    0.52053   0.18075   0.90164   1.000
    C52     C    0.23651   0.12520   0.15775   1.000
    C53     C    0.73661   0.12505   0.15781   1.000
    C54     C    0.01847   0.08606   0.16660   1.000
    C55     C    0.51853   0.08588   0.16670   1.000
    C56     C    0.01895   0.28493   0.40305   1.000
    C57     C    0.51896   0.28461   0.40313   1.000
    C58     C    0.22920   0.31944   0.40138   1.000
    C59     C    0.72926   0.31940   0.40130   1.000
    O60     O    0.47894   0.54118   0.34740   1.000
    O61     O    0.97914   0.54149   0.34750   1.000
    O62     O    0.04531   0.68032   0.38172   1.000
    O63     O    0.54453   0.68009   0.38198   1.000
    O64     O    0.19055   0.54686   0.30603   1.000
    O65     O    0.69068   0.54710   0.30616   1.000
    O66     O    0.29769   0.58547   0.40628   1.000
    O67     O    0.79794   0.58549   0.40636   1.000
    O68     O    0.25541   0.86713   0.10450   1.000
    O69     O    0.75561   0.86702   0.10432   1.000
    O70     O    0.22843   0.73863   0.04104   1.000
    O71     O    0.72803   0.73828   0.04132   1.000
    O72     O    0.04424   0.78556   0.06189   1.000
    O73     O    0.54418   0.78556   0.06192   1.000
    O74     O    0.45567   0.89586   0.08546   1.000
    O75     O    0.95576   0.89590   0.08538   1.000
    O76     O    0.38680   0.46769   0.51032   1.000
    O77     O    0.88684   0.46767   0.51031   1.000
    O78     O    0.27152   0.95910   0.84748   1.000
    O79     O    0.77156   0.95897   0.84747   1.000
    O80     O    0.20517   0.82033   0.88159   1.000
    O81     O    0.70539   0.82018   0.88173   1.000
    O82     O    0.05935   0.95413   0.80580   1.000
    O83     O    0.55933   0.95427   0.80580   1.000
    O84     O    0.45258   0.91468   0.90617   1.000
    O85     O    0.95260   0.91463   0.90620   1.000
    O86     O    0.49415   0.63298   0.60410   1.000
    O87     O    0.99451   0.63278   0.60439   1.000
    O88     O    0.02260   0.76162   0.54160   1.000
    O89     O    0.52293   0.76199   0.54172   1.000
    O90     O    0.20640   0.71444   0.56189   1.000
    O91     O    0.70639   0.71437   0.56191   1.000
    O92     O    0.29394   0.60363   0.58628   1.000
    O93     O    0.79416   0.60367   0.58610   1.000
    O94     O    0.36310   0.03226   0.01030   1.000
    O95     O    0.86308   0.03221   0.01035   1.000
    O96     O    0.02087   0.45850   0.65249   1.000
    O97     O    0.52108   0.45882   0.65257   1.000
    O98     O    0.45549   0.31991   0.61801   1.000
    O99     O    0.95469   0.31968   0.61827   1.000
    O100    O    0.30933   0.45289   0.69380   1.000
    O101    O    0.80945   0.45316   0.69396   1.000
    O102    O    0.20206   0.41451   0.59363   1.000
    O103    O    0.70232   0.41452   0.59371   1.000
    O104    O    0.24440   0.13297   0.89568   1.000
    O105    O    0.74459   0.13288   0.89550   1.000
    O106    O    0.27200   0.26173   0.95865   1.000
    O107    O    0.77161   0.26139   0.95893   1.000
    O108    O    0.45585   0.21444   0.93808   1.000
    O109    O    0.95577   0.21444   0.93810   1.000
    O110    O    0.04424   0.10409   0.91459   1.000
    O111    O    0.54431   0.10411   0.91440   1.000
    O112    O    0.11317   0.53233   0.48967   1.000
    O113    O    0.61321   0.53230   0.48967   1.000
    O114    O    0.22847   0.04105   0.15252   1.000
    O115    O    0.72850   0.04090   0.15251   1.000
    O116    O    0.29462   0.17985   0.11825   1.000
    O117    O    0.79483   0.17967   0.11840   1.000
    O118    O    0.44070   0.04570   0.19414   1.000
    O119    O    0.94066   0.04587   0.19412   1.000
    O120    O    0.04742   0.08536   0.09379   1.000
    O121    O    0.54743   0.08531   0.09382   1.000
    O122    O    0.00550   0.36722   0.39560   1.000
    O123    O    0.50585   0.36701   0.39583   1.000
    O124    O    0.47708   0.23800   0.45826   1.000
    O125    O    0.97741   0.23838   0.45830   1.000
    O126    O    0.29361   0.28563   0.43808   1.000
    O127    O    0.79361   0.28555   0.43809   1.000
    O128    O    0.20586   0.39633   0.41385   1.000
    O129    O    0.70606   0.39636   0.41371   1.000
    O130    O    0.13692   0.96779   0.98964   1.000
    O131    O    0.63691   0.96774   0.98962   1.000
loop_
    _geom_bond_atom_site_label_1
    _geom_bond_atom_site_label_2
    _geom_bond_distance
    _geom_bond_site_symmetry_2
    _ccdc_geom_bond_type
    Zn11   O94       2.02527      .   S
    Zn11   O116      2.01308      .   S
    Zn11   O108      1.99827  1_554   S
    Zn11   O106      2.12513  1_554   S
    Zn12   O95       2.02496      .   S
    Zn12   O117      2.01308      .   S
    Zn12   O109      1.99802  1_554   S
    Zn12   O107      2.12398  1_554   S
    O94    H21       0.98236  1_554   S
    O95    H22       0.98321  1_554   S
    H27    O131      0.98327  1_554   S
    H26    O130      0.98311  1_554   S
    O70    C32       1.25418      .   S
    O70    Zn3       2.12387  1_554   S
    O71    C33       1.25412      .   S
    O71    Zn4       2.12520  1_554   S
    O72    C35       1.26772  1_455   S
    O72    Zn3       1.99794  1_554   S
    O73    C34       1.26763      .   S
    O73    Zn4       1.99828  1_554   S
    O75    C35       1.27636      .   S
    O75    Zn17      2.14993  1_664   S
    O74    C34       1.27644      .   S
    O74    Zn18      2.15145  1_564   S
    O120   C54       1.26519      .   S
    O120   Zn17      2.07235  1_554   S
    O121   C55       1.26596      .   S
    O121   Zn18      2.07232  1_554   S
    C32    O68       1.29950      .   S
    C33    O69       1.29964      .   S
    O69    Zn14      2.00091      .   S
    O68    Zn13      2.00074      .   S
    O116   C52       1.27661      .   S
    O117   C53       1.27648      .   S
    Zn14   O115      2.06384  1_565   S
    Zn14   O119      1.98454  1_565   S
    Zn13   O114      2.06446  1_565   S
    Zn13   O118      1.98406  1_565   S
    O115   C53       1.27588      .   S
    O114   C52       1.27582      .   S
    C54    O119      1.28440  1_455   S
    C55    O118      1.28421      .   S
    O64    C30       1.28400      .   S
    O64    Zn1       1.98638      .   S
    O65    C31       1.28417      .   S
    O65    Zn2       1.98739      .   S
    C30    O66       1.26612      .   S
    C31    O67       1.26603      .   S
    C29    O61       1.27576      .   S
    C29    O62       1.27672  1_655   S
    C28    O60       1.27586      .   S
    C28    O63       1.27651      .   S
    O60    Zn2       2.06227      .   S
    O61    Zn1       2.06135  1_655   S
    Zn2    O123      2.00231      .   S
    Zn1    O122      2.00167      .   S
    O62    Zn24      2.01227      .   S
    O63    Zn0       2.00652      .   S
    O122   C56       1.29934      .   S
    O123   C57       1.29956      .   S
    C59    O129      1.27674      .   S
    C59    O127      1.26781      .   S
    C58    O128      1.27667      .   S
    C58    O126      1.26750      .   S
    C56    O125      1.25337  1_455   S
    C57    O124      1.25440      .   S
    O66    Zn15      2.07342      .   S
    O67    Zn16      2.07321      .   S
    O129   Zn16      2.15384      .   S
    O128   Zn15      2.15324      .   S
    O126   Zn7       2.00107      .   S
    O127   Zn8       2.00086      .   S
    O124   Zn7       2.12335      .   S
    O125   Zn8       2.12242      .   S
    H20    O77       0.98304      .   S
    H19    O76       0.98309      .   S
    O112   Zn24      2.02433      .   S
    O112   H23       0.98203      .   S
    O113   Zn0       2.02482      .   S
    O113   H25       0.98307      .   S
    Zn0    O89       2.12575      .   S
    Zn0    O91       2.00472      .   S
    Zn24   O88       2.12192      .   S
    Zn24   O90       2.00076      .   S
    Zn16   O93       2.15293      .   S
    Zn16   O103      2.07337      .   S
    Zn15   O92       2.15378      .   S
    Zn15   O102      2.07325      .   S
    Zn7    O76       2.02500      .   S
    Zn7    O98       2.01252      .   S
    Zn8    O77       2.02434      .   S
    Zn8    O99       2.01222      .   S
    O88    C41       1.25442  1_455   S
    O89    C40       1.25453      .   S
    O90    C42       1.26749      .   S
    O91    C43       1.26747      .   S
    O93    C43       1.27673      .   S
    O92    C42       1.27660      .   S
    O102   C46       1.26603      .   S
    O103   C47       1.26624      .   S
    C40    O86       1.29947      .   S
    C41    O87       1.29935      .   S
    O86    Zn9       2.00243      .   S
    O87    Zn10      2.00169      .   S
    O98    C45       1.27651      .   S
    O99    C44       1.27675  1_655   S
    Zn10   O96       2.06134  1_655   S
    Zn10   O101      1.98624      .   S
    Zn9    O97       2.06223      .   S
    Zn9    O100      1.98711      .   S
    O96    C44       1.27578      .   S
    O97    C45       1.27587      .   S
    C46    O100      1.28401      .   S
    C47    O101      1.28394      .   S
    O83    C38       1.28451      .   S
    O83    Zn6       1.98449  1_565   S
    O82    C39       1.28453  1_455   S
    O82    Zn5       1.98507  1_565   S
    C38    O84       1.26600      .   S
    C39    O85       1.26597      .   S
    C36    O78       1.27590      .   S
    C36    O80       1.27659      .   S
    C37    O79       1.27583      .   S
    C37    O81       1.27661      .   S
    O79    Zn6       2.06449  1_565   S
    O78    Zn5       2.06383  1_565   S
    Zn6    O105      2.00081      .   S
    Zn5    O104      2.00097      .   S
    O80    Zn3       2.01304      .   S
    O81    Zn4       2.01300      .   S
    O105   C49       1.29950      .   S
    O104   C48       1.29961      .   S
    C51    O111      1.27624      .   S
    C51    O108      1.26767      .   S
    C50    O110      1.27633      .   S
    C50    O109      1.26767  1_455   S
    C48    O106      1.25416      .   S
    C49    O107      1.25412      .   S
    O84    Zn18      2.07226  1_565   S
    O85    Zn17      2.07226  1_665   S
    O111   Zn18      2.15233      .   S
    O110   Zn17      2.14989      .   S
    O131   Zn4       2.02536      .   S
    O130   Zn3       2.02496      .   S
    O74    Zn13      2.25999      .   S
    O75    Zn14      2.26010      .   S
    O76    Zn9       2.06037      .   S
    O76    Zn15      2.09289      .   S
    O77    Zn10      2.06045      .   S
    O77    Zn16      2.09298      .   S
    O92    Zn9       2.25384      .   S
    O93    Zn10      2.25339      .   S
    O94    Zn13      2.06031  1_545   S
    O94    Zn18      2.09393  1_554   S
    O95    Zn14      2.05924  1_545   S
    O95    Zn17      2.09386  1_654   S
    O110   Zn5       2.26005      .   S
    O111   Zn6       2.25954      .   S
    O112   Zn1       2.06027      .   S
    O112   Zn15      2.09299      .   S
    O113   Zn2       2.06038      .   S
    O113   Zn16      2.09289      .   S
    O128   Zn1       2.25322      .   S
    O129   Zn2       2.25378      .   S
    O130   Zn5       2.05937  1_565   S
    O130   Zn17      2.09399  1_565   S
    O131   Zn6       2.05936  1_565   S
    O131   Zn18      2.09402  1_565   S
