# CIF file generated by openbabel 2.4.90, see http://openbabel.sf.net
data_I
_chemical_name_common ''
_cell_length_a 12.124
_cell_length_b 15.264
_cell_length_c 15.916
_cell_angle_alpha 89.962
_cell_angle_beta 89.998
_cell_angle_gamma 89.986
_space_group_name_H-M_alt 'P 1'
_space_group_name_Hall 'P 1'
loop_
    _symmetry_equiv_pos_as_xyz
    x,y,z
loop_
    _atom_site_label
    _atom_site_type_symbol
    _atom_site_fract_x
    _atom_site_fract_y
    _atom_site_fract_z
    _atom_site_occupancy
    N0      N    0.82398   0.26664   0.65983   1.000
    N1      N    0.12276   0.70546   0.72765   1.000
    N2      N    0.37721   0.20542   0.22769   1.000
    N3      N    0.12282   0.70534   0.27233   1.000
    N4      N    0.37715   0.20537   0.77231   1.000
    N5      N    0.82401   0.26660   0.34024   1.000
    Zr6     Zr   0.00014   0.38006   0.99997   1.000
    O7      O    0.93438   0.33485   0.14296   1.000
    O8      O    0.93437   0.33487   0.85703   1.000
    O9      O    0.14847   0.31367   0.06838   1.000
    O10     O    0.14845   0.31365   0.93158   1.000
    O11     O    0.03234   0.50313   0.92059   1.000
    O12     O    0.03237   0.50310   0.07938   1.000
    Zr13    Zr   0.69570   0.10953   0.50010   1.000
    O14     O    0.59393   0.15023   0.42091   1.000
    O15     O    0.73294   0.17415   0.55150   1.000
    O16     O    0.59391   0.15022   0.57922   1.000
    O17     O    0.73295   0.17413   0.44865   1.000
    Zr18    Zr   0.30426   0.89048   0.49991   1.000
    O19     O    0.25371   0.81890   0.56833   1.000
    O20     O    0.25373   0.81885   0.43155   1.000
loop_
    _geom_bond_atom_site_label_1
    _geom_bond_atom_site_label_2
    _geom_bond_distance
    _geom_bond_site_symmetry_2
    _ccdc_geom_bond_type
    Zr6    O7        2.50786  1_456   S
    N5     O7        3.56800      .   S
    Zr6    O8        2.50805  1_455   S
    N0     O8        3.56827      .   S
    Zr6    O9        2.33324  1_556   S
    N2     O9        4.10395      .   S
    Zr6    O10       2.33368      .   S
    N4     O10       4.10462      .   S
    Zr6    O11       2.29667      .   S
    N1     O11       4.48980      .   S
    Zr6    O12       2.29798  1_556   S
    N3     O12       4.49198      .   S
    Zr13   O14       1.86959      .   S
    N2     O14       4.13130      .   S
    Zr13   O15       1.35914      .   S
    N0     O15       2.48764      .   S
    Zr13   O16       1.86950      .   S
    N4     O16       4.13070      .   S
    Zr13   O17       1.35867      .   S
    N5     O17       2.48704      .   S
    Zr18   O19       1.65959      .   S
    N1     O19       3.45605      .   S
    Zr18   O20       1.66028      .   S
    N3     O20       3.45683      .   S
