# CIF file generated by openbabel 2.4.90, see http://openbabel.sf.net
data_I
_chemical_name_common ''
_cell_length_a 22.522
_cell_length_b 16.308
_cell_length_c 14.511
_cell_angle_alpha 89.989
_cell_angle_beta 95.208
_cell_angle_gamma 89.979
_space_group_name_H-M_alt 'P 1'
_space_group_name_Hall 'P 1'
loop_
    _symmetry_equiv_pos_as_xyz
    x,y,z
loop_
    _atom_site_label
    _atom_site_type_symbol
    _atom_site_fract_x
    _atom_site_fract_y
    _atom_site_fract_z
    _atom_site_occupancy
    Zn0     Zn   0.70009   0.68385   0.11360   1.000
    Zn1     Zn   0.04981   0.18386   0.88637   1.000
    Zn2     Zn   0.54981   0.18386   0.88637   1.000
    Zn3     Zn   0.29989   0.31616   0.88630   1.000
    Zn4     Zn   0.79988   0.31616   0.88632   1.000
    Zn5     Zn   0.45017   0.81615   0.11358   1.000
    Zn6     Zn   0.95017   0.81615   0.11357   1.000
    Zn7     Zn   0.20010   0.68386   0.11363   1.000
    C8      C    0.24807   0.83782   0.08376   1.000
    C9      C    0.74807   0.83786   0.08385   1.000
    C10     C    0.36311   0.93619   0.08425   1.000
    C11     C    0.86311   0.93620   0.08428   1.000
    O12     O    0.62036   0.13190   0.95267   1.000
    O13     O    0.10628   0.00000   0.85493   1.000
    O14     O    0.60629   0.00000   0.85494   1.000
    O15     O    0.46274   0.71621   0.04137   1.000
    O16     O    0.96273   0.71622   0.04134   1.000
    O17     O    0.02621   0.67283   0.16092   1.000
    O18     O    0.52621   0.67280   0.16095   1.000
    O19     O    0.12961   0.63191   0.04721   1.000
    C20     C    0.50195   0.33764   0.91664   1.000
    C21     C    0.00000   0.33763   0.91667   1.000
    C22     C    0.38688   0.43616   0.91572   1.000
    C23     C    0.88688   0.43615   0.91572   1.000
    C24     C    0.25191   0.16217   0.91609   1.000
    C25     C    0.75191   0.16220   0.91618   1.000
    C26     C    0.13687   0.06381   0.91560   1.000
    C27     C    0.63686   0.06382   0.91568   1.000
    C28     C    0.99802   0.66239   0.08326   1.000
    C29     C    0.49802   0.66238   0.08329   1.000
    C30     C    0.11309   0.56386   0.08422   1.000
    C31     C    0.61309   0.56386   0.08422   1.000
    O32     O    0.21282   0.78396   0.04192   1.000
    O33     O    0.71284   0.78398   0.04201   1.000
    O34     O    0.27628   0.82751   0.16143   1.000
    O35     O    0.77627   0.82759   0.16153   1.000
    O36     O    0.37962   0.86811   0.04728   1.000
    O37     O    0.87960   0.86812   0.04731   1.000
    O38     O    0.39368   0.97607   0.14500   1.000
    O39     O    0.89370   0.97608   0.14501   1.000
    O40     O    0.03724   0.28380   0.95859   1.000
    O41     O    0.53723   0.28380   0.95855   1.000
    O42     O    0.47376   0.32723   0.83897   1.000
    O43     O    0.97376   0.32720   0.83900   1.000
    O44     O    0.37037   0.36810   0.95272   1.000
    O45     O    0.87036   0.36811   0.95273   1.000
    O46     O    0.35632   0.47607   0.85495   1.000
    O47     O    0.85632   0.47606   0.85494   1.000
    O48     O    0.28714   0.21604   0.95794   1.000
    O49     O    0.78716   0.21606   0.95802   1.000
    O50     O    0.22371   0.17245   0.83840   1.000
    O51     O    0.72369   0.17253   0.83851   1.000
    O52     O    0.12038   0.13189   0.95264   1.000
    O53     O    0.62961   0.63191   0.04722   1.000
    O54     O    0.14365   0.52395   0.14500   1.000
    O55     O    0.64365   0.52394   0.14499   1.000
    Ts56    Ts   0.69260   0.69023   0.15806   1.000
    Ts57    Ts   0.72572   0.66187   0.11873   1.000
    Ts58    Ts   0.05727   0.19027   0.84191   1.000
    Ts59    Ts   0.02419   0.16184   0.88126   1.000
    Ts60    Ts   0.55727   0.19027   0.84191   1.000
    Ts61    Ts   0.52419   0.16185   0.88125   1.000
    Ts62    Ts   0.30737   0.30979   0.84183   1.000
    Ts63    Ts   0.27426   0.33814   0.88118   1.000
    Ts64    Ts   0.80736   0.30977   0.84188   1.000
    Ts65    Ts   0.77425   0.33814   0.88120   1.000
    Ts66    Ts   0.44271   0.80975   0.15803   1.000
    Ts67    Ts   0.47579   0.83817   0.11870   1.000
    Ts68    Ts   0.94271   0.80975   0.15803   1.000
    Ts69    Ts   0.97578   0.83817   0.11865   1.000
    Ts70    Ts   0.19261   0.69024   0.15807   1.000
    Ts71    Ts   0.22573   0.66187   0.11875   1.000
    Og72    Og   0.24920   0.86498   0.06772   1.000
    Og73    Og   0.74920   0.86501   0.06757   1.000
    Og74    Og   0.34320   0.94683   0.07099   1.000
    Og75    Og   0.84320   0.94685   0.07103   1.000
    Og76    Og   0.50081   0.36483   0.93261   1.000
    Og77    Og   0.99951   0.36482   0.93263   1.000
    Og78    Og   0.40679   0.44680   0.92898   1.000
    Og79    Og   0.90679   0.44680   0.92898   1.000
    Og80    Og   0.25078   0.13501   0.93214   1.000
    Og81    Og   0.75078   0.13504   0.93212   1.000
    Og82    Og   0.15678   0.05317   0.92873   1.000
    Og83    Og   0.65678   0.05318   0.92894   1.000
    Og84    Og   0.99916   0.63520   0.06730   1.000
    Og85    Og   0.49916   0.63519   0.06733   1.000
    Og86    Og   0.09318   0.55322   0.07096   1.000
    Og87    Og   0.59318   0.55322   0.07096   1.000
loop_
    _geom_bond_atom_site_label_1
    _geom_bond_atom_site_label_2
    _geom_bond_distance
    _geom_bond_site_symmetry_2
    _ccdc_geom_bond_type
    O16    C28       1.29759      .   S
    O16    Zn6       1.97191      .   S
    O15    C29       1.29754      .   S
    O15    Zn5       1.97191      .   S
    O32    C8        1.29753      .   S
    O32    Zn7       1.97065      .   S
    O33    C9        1.29750      .   S
    O33    Zn0       1.97013      .   S
    O19    C30       1.30181      .   S
    O19    Zn7       1.97241      .   S
    O53    C31       1.30180      .   S
    O53    Zn0       1.97209      .   S
    O36    C10       1.30179      .   S
    O36    Zn5       1.97229      .   S
    O37    C11       1.30178      .   S
    O37    Zn6       1.97239      .   S
    C28    O17       1.25396  1_655   S
    C29    O18       1.25391      .   S
    C8     O34       1.25387      .   S
    C9     O35       1.25376      .   S
    C31    O55       1.25080      .   S
    C30    O54       1.25083      .   S
    C10    O38       1.25079      .   S
    C11    O39       1.25075      .   S
    O50    C24       1.25397      .   S
    O51    C25       1.25391      .   S
    O42    C20       1.25395      .   S
    O43    C21       1.23598  1_655   S
    O13    C26       1.49106      .   S
    O47    C23       1.25083      .   S
    O14    C27       1.49162      .   S
    O46    C22       1.25077      .   S
    Zn3    O44       1.97231      .   S
    Zn3    O48       1.97045      .   S
    Zn4    O45       1.97235      .   S
    Zn4    O49       1.97054      .   S
    Zn2    O12       1.97223      .   S
    Zn2    O41       1.97182      .   S
    Zn1    O52       1.97237      .   S
    Zn1    O40       1.97198      .   S
    C26    O52       1.30217      .   S
    C27    O12       1.30186      .   S
    C22    O44       1.30180      .   S
    C23    O45       1.30180      .   S
    C24    O48       1.29750      .   S
    C25    O49       1.29747      .   S
    C20    O41       1.29751      .   S
    C21    O40       1.32318      .   S
    Zn0    Ts56      0.68935      .   S
    Zn0    Ts57      0.67763      .   S
    Zn1    Ts58      0.68924      .   S
    Zn1    Ts59      0.67797      .   S
    Zn2    Ts60      0.68927      .   S
    Zn2    Ts61      0.67795      .   S
    Zn3    Ts62      0.68948      .   S
    Zn3    Ts63      0.67767      .   S
    Zn4    Ts64      0.68916      .   S
    Zn4    Ts65      0.67769      .   S
    Zn5    Ts66      0.68917      .   S
    Zn5    Ts67      0.67794      .   S
    Zn6    Ts68      0.68919      .   S
    Zn6    Ts69      0.67795      .   S
    Zn7    Ts70      0.68908      .   S
    Zn7    Ts71      0.67765      .   S
    C8     Og72      0.50207      .   S
    C9     Og73      0.50365      .   S
    C10    Og74      0.50251      .   S
    C11    Og75      0.50251      .   S
    C20    Og76      0.50209      .   S
    C21    Og77      0.50095  1_455   S
    C22    Og78      0.50256      .   S
    C23    Og79      0.50256      .   S
    C24    Og80      0.50207      .   S
    C25    Og81      0.50139      .   S
    C26    Og82      0.50201      .   S
    C27    Og83      0.50252      .   S
    C28    Og84      0.50211      .   S
    C29    Og85      0.50209      .   S
    C30    Og86      0.50256      .   S
    C31    Og87      0.50256      .   S
