# CIF file generated by openbabel 2.4.90, see http://openbabel.sf.net
data_I
_chemical_name_common ''
_cell_length_a 16.201
_cell_length_b 21.517
_cell_length_c 18.871
_cell_angle_alpha 90
_cell_angle_beta 90.009
_cell_angle_gamma 90
_space_group_name_H-M_alt 'P 1'
_space_group_name_Hall 'P 1'
loop_
    _symmetry_equiv_pos_as_xyz
    x,y,z
loop_
    _atom_site_label
    _atom_site_type_symbol
    _atom_site_fract_x
    _atom_site_fract_y
    _atom_site_fract_z
    _atom_site_occupancy
    Cd0     Cd   0.31199   0.87499   0.42065   1.000
    Cd1     Cd   0.81198   0.37504   0.42065   1.000
    Cd2     Cd   0.81201   0.87499   0.42065   1.000
    Cd3     Cd   0.43799   0.12502   0.92063   1.000
    Cd4     Cd   0.43804   0.62499   0.92060   1.000
    Cd5     Cd   0.93800   0.12502   0.92063   1.000
    Cd6     Cd   0.93805   0.62499   0.92061   1.000
    Cd7     Cd   0.18795   0.12502   0.57938   1.000
    Cd8     Cd   0.18799   0.62498   0.57939   1.000
    Cd9     Cd   0.68797   0.12502   0.57938   1.000
    Cd10    Cd   0.68800   0.62498   0.57939   1.000
    Cd11    Cd   0.06192   0.37503   0.07942   1.000
    Cd12    Cd   0.06196   0.87499   0.07941   1.000
    Cd13    Cd   0.56193   0.37503   0.07942   1.000
    Cd14    Cd   0.56197   0.87499   0.07941   1.000
    Cd15    Cd   0.49041   0.12503   0.26293   1.000
    Cd16    Cd   0.49051   0.62501   0.26293   1.000
    Cd17    Cd   0.99042   0.12503   0.26293   1.000
    Cd18    Cd   0.99052   0.62501   0.26293   1.000
    Cd19    Cd   0.25943   0.37501   0.76296   1.000
    Cd20    Cd   0.25952   0.87498   0.76295   1.000
    Cd21    Cd   0.75944   0.37501   0.76296   1.000
    Cd22    Cd   0.75953   0.87498   0.76295   1.000
    Cd23    Cd   0.00945   0.37500   0.73711   1.000
    Cd24    Cd   0.00954   0.87498   0.73711   1.000
    Cd25    Cd   0.50946   0.37500   0.73711   1.000
    Cd26    Cd   0.50955   0.87498   0.73711   1.000
    Cd27    Cd   0.24042   0.12504   0.23708   1.000
    Cd28    Cd   0.24052   0.62501   0.23708   1.000
    Cd29    Cd   0.74044   0.12504   0.23708   1.000
    Cd30    Cd   0.74054   0.62501   0.23708   1.000
    Cd31    Cd   0.31197   0.37504   0.42065   1.000
    I32     I    0.13802   0.37503   0.42316   1.000
    I33     I    0.13804   0.87497   0.42317   1.000
    I34     I    0.63803   0.37503   0.42316   1.000
    I35     I    0.63806   0.87497   0.42317   1.000
    I36     I    0.11193   0.12504   0.92301   1.000
    I37     I    0.11198   0.62499   0.92299   1.000
    I38     I    0.61194   0.12504   0.92301   1.000
    I39     I    0.61199   0.62499   0.92299   1.000
    I40     I    0.36190   0.12505   0.57686   1.000
    I41     I    0.36194   0.62499   0.57688   1.000
    I42     I    0.86192   0.12505   0.57686   1.000
    I43     I    0.86195   0.62499   0.57688   1.000
    I44     I    0.38798   0.37503   0.07705   1.000
    I45     I    0.38802   0.87497   0.07703   1.000
    I46     I    0.88799   0.37503   0.07705   1.000
    I47     I    0.88803   0.87497   0.07703   1.000
loop_
    _geom_bond_atom_site_label_1
    _geom_bond_atom_site_label_2
    _geom_bond_distance
    _geom_bond_site_symmetry_2
    _ccdc_geom_bond_type
    I45    Cd14      2.81858      .   S
    I47    Cd12      2.81814  1_655   S
    I46    Cd11      2.81812  1_655   S
    I44    Cd13      2.81854      .   S
    Cd31   I32       2.81857      .   S
    Cd0    I33       2.81856      .   S
    Cd2    I35       2.81857      .   S
    Cd1    I34       2.81857      .   S
    I42    Cd9       2.81857      .   S
    I40    Cd7       2.81857      .   S
    I43    Cd10      2.81857      .   S
    I41    Cd8       2.81857      .   S
    Cd4    I39       2.81857      .   S
    Cd6    I37       2.81814  1_655   S
    Cd3    I38       2.81856      .   S
    Cd5    I36       2.81814  1_655   S
