# CIF file generated by openbabel 2.4.90, see http://openbabel.sf.net
data_I
_chemical_name_common ''
_cell_length_a 13.396
_cell_length_b 15.744
_cell_length_c 23.744
_cell_angle_alpha 89.872
_cell_angle_beta 90.124
_cell_angle_gamma 101.064
_space_group_name_H-M_alt 'P 1'
_space_group_name_Hall 'P 1'
loop_
    _symmetry_equiv_pos_as_xyz
    x,y,z
loop_
    _atom_site_label
    _atom_site_type_symbol
    _atom_site_fract_x
    _atom_site_fract_y
    _atom_site_fract_z
    _atom_site_occupancy
    N0      N    0.46439   0.35405   0.33029   1.000
    N1      N    0.46163   0.85216   0.16990   1.000
    N2      N    0.53774   0.14541   0.82997   1.000
    N3      N    0.96358   0.85200   0.16998   1.000
    N4      N    0.03788   0.14540   0.82993   1.000
    N5      N    0.03753   0.64511   0.66894   1.000
    N6      N    0.96387   0.35397   0.33019   1.000
    N7      N    0.53756   0.64564   0.66915   1.000
    Zr8     Zr   0.25069   0.49918   0.99946   1.000
    O9      O    0.25670   0.44644   0.05294   1.000
    O10     O    0.24492   0.55197   0.94602   1.000
    Zr11    Zr   0.75168   0.49926   0.99947   1.000
    O12     O    0.74539   0.55196   0.94593   1.000
    O13     O    0.75743   0.44651   0.05300   1.000
    Zr14    Zr   0.25081   0.00004   0.49975   1.000
    O15     O    0.25662   0.94694   0.44668   1.000
    O16     O    0.24487   0.05265   0.55301   1.000
    Zr17    Zr   0.75068   0.99998   0.49965   1.000
    O18     O    0.75594   0.94693   0.44642   1.000
    O19     O    0.74489   0.05267   0.55293   1.000
    O20     O    0.32735   0.07609   0.44831   1.000
    O21     O    0.17427   0.92369   0.55115   1.000
    O22     O    0.67421   0.92380   0.55111   1.000
    O23     O    0.82690   0.07583   0.44795   1.000
    O24     O    0.82827   0.57490   0.05124   1.000
    O25     O    0.67481   0.42321   0.94802   1.000
    O26     O    0.17430   0.42314   0.94796   1.000
    O27     O    0.32656   0.57488   0.05125   1.000
loop_
    _geom_bond_atom_site_label_1
    _geom_bond_atom_site_label_2
    _geom_bond_distance
    _geom_bond_site_symmetry_2
    _ccdc_geom_bond_type
    Zr8    O9        1.52614  1_556   S
    N6     O9        7.66282  1_655   S
    Zr8    O10       1.52517      .   S
    N7     O10       7.65562      .   S
    Zr11   O12       1.52752      .   S
    N5     O12       7.65426  1_455   S
    Zr11   O13       1.52646  1_556   S
    N0     O13       7.66516      .   S
    Zr14   O15       1.52420  1_545   S
    N3     O15       7.64775  1_655   S
    Zr14   O16       1.52363      .   S
    N2     O16       7.64885      .   S
    Zr17   O18       1.52568      .   S
    N1     O18       7.65188      .   S
    Zr17   O19       1.52476  1_565   S
    N4     O19       7.65004  1_455   S
    Zr14   O20       1.87194      .   S
    N0     O20       5.22099      .   S
    Zr14   O21       1.87397  1_545   S
    N5     O21       5.22462      .   S
    Zr17   O22       1.87305      .   S
    N7     O22       5.22264      .   S
    Zr17   O23       1.87247  1_565   S
    N6     O23       5.21973      .   S
    Zr11   O24       1.87453  1_556   S
    N3     O24       5.22159      .   S
    Zr11   O25       1.87470      .   S
    N2     O25       5.22569      .   S
    Zr8    O26       1.87249      .   S
    N4     O26       5.22315      .   S
    Zr8    O27       1.87135  1_556   S
    N1     O27       5.22202      .   S
