# CIF file generated by openbabel 2.4.90, see http://openbabel.sf.net
data_I
_chemical_name_common ''
_cell_length_a 15.583
_cell_length_b 17.778
_cell_length_c 18.307
_cell_angle_alpha 112.399
_cell_angle_beta 89.999
_cell_angle_gamma 89.946
_space_group_name_H-M_alt 'P 1'
_space_group_name_Hall 'P 1'
loop_
    _symmetry_equiv_pos_as_xyz
    x,y,z
loop_
    _atom_site_label
    _atom_site_type_symbol
    _atom_site_fract_x
    _atom_site_fract_y
    _atom_site_fract_z
    _atom_site_occupancy
    Zn0     Zn   0.90067   0.00000   0.16639   1.000
    Zn1     Zn   0.50068   0.49779   0.16613   1.000
    Zn2     Zn   0.40376   0.50091   0.00296   1.000
    Zn3     Zn   0.59612   0.49775   0.33358   1.000
    Zn4     Zn   0.40056   0.49956   0.33311   1.000
    Zn5     Zn   0.00060   0.00232   0.33370   1.000
    Zn6     Zn   0.90360   0.99867   0.49695   1.000
    Zn7     Zn   0.90379   0.99742   0.83364   1.000
    Zn8     Zn   0.09934   0.99941   0.83368   1.000
    Zn9     Zn   0.49991   0.50218   0.83374   1.000
    Zn10    Zn   0.59975   0.49892   0.99692   1.000
    Zn11    Zn   0.40397   0.50204   0.66649   1.000
    Zn12    Zn   0.59951   0.50081   0.66636   1.000
    Zn13    Zn   0.99985   0.99773   0.66631   1.000
    Zn14    Zn   0.09962   0.00161   0.50318   1.000
    Zn15    Zn   0.49997   0.50002   0.49993   1.000
    H16     H    0.99449   0.10683   0.13705   1.000
    H17     H    0.99911   0.89661   0.19670   1.000
    H18     H    0.50343   0.39374   0.02754   1.000
    H19     H    0.89342   0.22694   0.12998   1.000
    H20     H    0.70263   0.15980   0.94702   1.000
    H21     H    0.79611   0.33578   0.21817   1.000
    H22     H    0.60533   0.26877   0.03519   1.000
    H23     H    0.82229   0.83937   0.85720   1.000
    H24     H    0.75168   0.79017   0.06165   1.000
    H25     H    0.74448   0.71438   0.77088   1.000
    H26     H    0.67459   0.66461   0.97534   1.000
    H27     H    0.25303   0.71388   0.10563   1.000
    H28     H    0.37493   0.70190   0.31164   1.000
    H29     H    0.16776   0.83399   0.19154   1.000
    H30     H    0.28639   0.81939   0.39760   1.000
    Zn31    Zn   0.09626   0.00259   0.16627   1.000
    H32     H    0.49495   0.39343   0.36302   1.000
    H33     H    0.49846   0.60345   0.30300   1.000
    H34     H    0.00000   0.10636   0.47244   1.000
    H35     H    0.39296   0.27311   0.36844   1.000
    H36     H    0.20489   0.33839   0.55384   1.000
    H37     H    0.29510   0.16476   0.28079   1.000
    H38     H    0.10697   0.22997   0.46610   1.000
    H39     H    0.32172   0.66010   0.64270   1.000
    H40     H    0.25206   0.71001   0.43840   1.000
    H41     H    0.24405   0.78532   0.72912   1.000
    H42     H    0.17514   0.83585   0.52483   1.000
    H43     H    0.75342   0.78622   0.39421   1.000
    H44     H    0.87552   0.79743   0.18799   1.000
    H45     H    0.66810   0.66624   0.30857   1.000
    H46     H    0.78686   0.68013   0.10224   1.000
    H47     H    0.00525   0.89301   0.86300   1.000
    H48     H    0.00000   0.10334   0.80300   1.000
    H49     H    0.49970   0.60623   0.97262   1.000
    H50     H    0.10678   0.77297   0.86989   1.000
    H51     H    0.29734   0.84005   0.05305   1.000
    H52     H    0.20410   0.66405   0.78183   1.000
    H53     H    0.39462   0.73093   0.96505   1.000
    H54     H    0.17805   0.16119   0.14297   1.000
    H55     H    0.24849   0.20891   0.93769   1.000
    H56     H    0.25596   0.28640   0.22867   1.000
    H57     H    0.32571   0.33469   0.02335   1.000
    H58     H    0.74804   0.28553   0.89348   1.000
    H59     H    0.62569   0.29760   0.68771   1.000
    H60     H    0.83289   0.16520   0.80747   1.000
    H61     H    0.71395   0.17995   0.60159   1.000
    H62     H    0.50459   0.60668   0.63684   1.000
    H63     H    0.50236   0.39653   0.69660   1.000
    H64     H    0.00041   0.89388   0.52737   1.000
    H65     H    0.60721   0.72688   0.63160   1.000
    H66     H    0.79517   0.66148   0.44610   1.000
    H67     H    0.70506   0.83533   0.71909   1.000
    H68     H    0.89305   0.77005   0.53365   1.000
    H69     H    0.67849   0.33947   0.35694   1.000
    H70     H    0.74786   0.29026   0.56171   1.000
    H71     H    0.75625   0.21416   0.27089   1.000
    H72     H    0.82490   0.16434   0.47563   1.000
    H73     H    0.24764   0.21424   0.60650   1.000
    H74     H    0.12559   0.20303   0.81200   1.000
    H75     H    0.33319   0.33398   0.69214   1.000
    H76     H    0.21463   0.32002   0.89853   1.000
    C77     C    0.86216   0.12100   0.98080   1.000
    C78     C    0.80396   0.18663   0.03316   1.000
    C79     C    0.83008   0.23626   0.10970   1.000
    C80     C    0.72259   0.19867   0.00641   1.000
    C81     C    0.77608   0.29688   0.15878   1.000
    C82     C    0.66865   0.25936   0.05540   1.000
    C83     C    0.69473   0.30894   0.13204   1.000
    C84     C    0.63646   0.37456   0.18439   1.000
    C85     C    0.84195   0.89465   0.01627   1.000
    C86     C    0.79266   0.82164   0.96471   1.000
    C87     C    0.79029   0.80069   0.88271   1.000
    C88     C    0.75006   0.77276   0.99792   1.000
    C89     C    0.74659   0.73135   0.83459   1.000
    C90     C    0.70657   0.70331   0.94984   1.000
    C91     C    0.70467   0.68206   0.86778   1.000
    C92     C    0.65700   0.60789   0.81621   1.000
    C93     C    0.37116   0.62857   0.15195   1.000
    C94     C    0.31936   0.70036   0.20322   1.000
    C95     C    0.26040   0.73757   0.16958   1.000
    C96     C    0.32920   0.73079   0.28560   1.000
    C97     C    0.21225   0.80400   0.21754   1.000
    C98     C    0.27970   0.79607   0.33363   1.000
    O99     O    0.15908   0.90719   0.75860   1.000
    O100    O    0.93700   0.89127   0.31872   1.000
    O101    O    0.84438   0.90709   0.41934   1.000
    O102    O    0.62156   0.55959   0.18081   1.000
    C103    C    0.22048   0.83303   0.30000   1.000
    C104    C    0.16502   0.90185   0.35130   1.000
    C105    C    0.36339   0.37791   0.51849   1.000
    C106    C    0.30491   0.31244   0.46648   1.000
    C107    C    0.33010   0.26350   0.38934   1.000
    C108    C    0.22413   0.30004   0.49400   1.000
    C109    C    0.27580   0.20314   0.34060   1.000
    C110    C    0.16984   0.23963   0.44527   1.000
    C111    C    0.19498   0.19077   0.36808   1.000
    C112    C    0.13645   0.12549   0.31581   1.000
    C113    C    0.34178   0.60501   0.48365   1.000
    C114    C    0.29256   0.67818   0.53528   1.000
    C115    C    0.28995   0.69898   0.61726   1.000
    C116    C    0.25025   0.72732   0.50214   1.000
    C117    C    0.24636   0.76847   0.66542   1.000
    C118    C    0.20689   0.79693   0.55027   1.000
    C119    C    0.20473   0.81801   0.63229   1.000
    C120    C    0.15706   0.89226   0.68389   1.000
    C121    C    0.87145   0.87117   0.34776   1.000
    C122    C    0.81985   0.79934   0.29652   1.000
    C123    C    0.76084   0.76234   0.33027   1.000
    C124    C    0.82975   0.76873   0.21413   1.000
    C125    C    0.71263   0.69602   0.28244   1.000
    C126    C    0.78018   0.70356   0.16622   1.000
    C127    C    0.72089   0.66683   0.19994   1.000
    C128    C    0.66524   0.59825   0.14870   1.000
    C129    C    0.13790   0.87892   0.01906   1.000
    C130    C    0.19612   0.81325   0.96680   1.000
    C131    C    0.17007   0.76361   0.89019   1.000
    C132    C    0.27742   0.80117   0.99364   1.000
    C133    C    0.22408   0.70295   0.84124   1.000
    C134    C    0.33138   0.74042   0.94473   1.000
    C135    C    0.30536   0.69085   0.86807   1.000
    C136    C    0.36361   0.62518   0.81577   1.000
    C137    C    0.15810   0.10515   0.98380   1.000
    C138    C    0.20755   0.17820   0.03508   1.000
    C139    C    0.21001   0.19961   0.11710   1.000
    C140    C    0.25016   0.22671   0.00146   1.000
    C141    C    0.25379   0.26908   0.16491   1.000
    C142    C    0.29372   0.29628   0.04918   1.000
    C143    C    0.29564   0.31805   0.13130   1.000
    C144    C    0.34334   0.39240   0.18243   1.000
    C145    C    0.63055   0.37146   0.84749   1.000
    C146    C    0.68164   0.29922   0.79602   1.000
    C147    C    0.74051   0.26182   0.82956   1.000
    C148    C    0.67147   0.26866   0.71366   1.000
    C149    C    0.78841   0.19526   0.78153   1.000
    C150    C    0.72079   0.20326   0.66555   1.000
    C151    C    0.78014   0.16631   0.69904   1.000
    C152    C    0.83603   0.09784   0.64780   1.000
    C153    C    0.63670   0.62199   0.48156   1.000
    C154    C    0.69519   0.68748   0.53351   1.000
    C155    C    0.67003   0.73650   0.61064   1.000
    C156    C    0.77595   0.69988   0.50593   1.000
    C157    C    0.72434   0.79690   0.65930   1.000
    C158    C    0.83023   0.76036   0.55458   1.000
    C159    C    0.80512   0.80928   0.63175   1.000
    C160    C    0.86363   0.87462   0.68397   1.000
    C161    C    0.65819   0.39494   0.51606   1.000
    C162    C    0.70747   0.32174   0.46458   1.000
    C163    C    0.71021   0.30072   0.38257   1.000
    C164    C    0.74975   0.27278   0.49795   1.000
    C165    C    0.75386   0.23116   0.33461   1.000
    C166    C    0.79317   0.20312   0.45003   1.000
    C167    C    0.79544   0.18179   0.36798   1.000
    C168    C    0.84317   0.10744   0.31666   1.000
    C169    C    0.13013   0.12891   0.65283   1.000
    C170    C    0.18136   0.20098   0.70424   1.000
    C171    C    0.24031   0.23804   0.67000   1.000
    C172    C    0.17145   0.23163   0.78663   1.000
    C173    C    0.28867   0.30424   0.71831   1.000
    C174    C    0.22126   0.29665   0.83455   1.000
    C175    C    0.28069   0.33326   0.80083   1.000
    C176    C    0.33691   0.40144   0.85184   1.000
    O177    O    0.99680   0.04807   0.12229   1.000
    O178    O    0.99949   0.95527   0.21051   1.000
    O179    O    0.50333   0.45269   0.04341   1.000
    O180    O    0.93342   0.10894   0.00000   1.000
    O181    O    0.83438   0.08144   0.91002   1.000
    O182    O    0.56662   0.38828   0.15652   1.000
    O183    O    0.66283   0.41220   0.25603   1.000
    O184    O    0.88074   0.93713   0.98505   1.000
    O185    O    0.84085   0.90862   0.09093   1.000
    O186    O    0.61885   0.56518   0.84764   1.000
    O187    O    0.65906   0.59298   0.74143   1.000
    O188    O    0.43692   0.60874   0.18099   1.000
    O189    O    0.34411   0.59242   0.08042   1.000
    O190    O    0.12130   0.94053   0.31927   1.000
    O191    O    0.16647   0.91594   0.42610   1.000
    O192    O    0.49692   0.45216   0.37751   1.000
    O193    O    0.49911   0.54477   0.28910   1.000
    O194    O    0.00270   0.04741   0.45660   1.000
    O195    O    0.43372   0.39064   0.49073   1.000
    O196    O    0.33671   0.41661   0.58984   1.000
    O197    O    0.06667   0.11184   0.34379   1.000
    O198    O    0.16263   0.08806   0.24406   1.000
    O199    O    0.38046   0.56245   0.51492   1.000
    O200    O    0.34077   0.59106   0.40899   1.000
    O201    O    0.11889   0.93504   0.65248   1.000
    O202    O    0.66650   0.58436   0.07399   1.000
    O203    O    0.00301   0.95177   0.87774   1.000
    O204    O    0.00000   0.04465   0.78951   1.000
    O205    O    0.50003   0.54726   0.95650   1.000
    O206    O    0.06667   0.89095   0.99215   1.000
    O207    O    0.16561   0.91854   0.08986   1.000
    O208    O    0.43339   0.61139   0.84369   1.000
    O209    O    0.33727   0.58758   0.74410   1.000
    O210    O    0.11919   0.06295   0.01525   1.000
    O211    O    0.15918   0.09092   0.90909   1.000
    O212    O    0.38167   0.43457   0.15049   1.000
    O213    O    0.34106   0.40795   0.25732   1.000
    O214    O    0.56424   0.39124   0.81918   1.000
    O215    O    0.65900   0.40800   0.91852   1.000
    O216    O    0.88002   0.05947   0.68003   1.000
    O217    O    0.83494   0.08375   0.57303   1.000
    O218    O    0.50270   0.54794   0.62231   1.000
    O219    O    0.50147   0.45522   0.71060   1.000
    O220    O    0.00000   0.95286   0.54349   1.000
    O221    O    0.56631   0.60937   0.50932   1.000
    O222    O    0.66339   0.58315   0.41020   1.000
    O223    O    0.93335   0.88834   0.65590   1.000
    O224    O    0.83746   0.91201   0.75574   1.000
    O225    O    0.61937   0.43733   0.48467   1.000
    O226    O    0.65926   0.40911   0.59070   1.000
    O227    O    0.88156   0.06508   0.34840   1.000
    O228    O    0.84095   0.09206   0.24181   1.000
    O229    O    0.06401   0.10898   0.68122   1.000
    O230    O    0.15843   0.09261   0.58165   1.000
    O231    O    0.38021   0.44017   0.81955   1.000
    O232    O    0.33672   0.41500   0.92650   1.000
loop_
    _geom_bond_atom_site_label_1
    _geom_bond_atom_site_label_2
    _geom_bond_distance
    _geom_bond_site_symmetry_2
    _ccdc_geom_bond_type
    O180   C77       1.20822  1_554   S
    C140   C138      1.40327      .   S
    C140   C142      1.38988      .   S
    C140   H55       1.08728  1_554   S
    Zn2    O179      2.04255      .   S
    Zn2    O189      1.93917      .   S
    Zn2    O232      1.93832  1_554   S
    C80    C78       1.40448      .   S
    C80    C82       1.39144      .   S
    C80    H20       1.08827  1_554   S
    O210   C137      1.26176  1_554   S
    C85    O185      1.29284      .   S
    C85    C86       1.49466  1_554   S
    C85    O184      1.26176  1_554   S
    C129   O207      1.29126      .   S
    C129   C130      1.49941  1_554   S
    C129   O206      1.26498  1_554   S
    H57    C142      1.08871      .   S
    H18    O179      0.97503      .   S
    C78    C79       1.40218      .   S
    C78    C77       1.49944  1_554   S
    C138   C139      1.40194      .   S
    C138   C137      1.49474  1_554   S
    H22    C82       1.08877      .   S
    C142   C143      1.40265      .   S
    H51    C132      1.08836  1_554   S
    C82    C83       1.40311      .   S
    H24    C88       1.08741  1_554   S
    O202   C128      1.29408      .   S
    O202   Zn10      1.93642  1_554   S
    O189   C93       1.29024      .   S
    O207   Zn31      1.93942  1_565   S
    O185   Zn0       1.92591  1_565   S
    H46    C126      1.08827      .   S
    H27    C95       1.08880      .   S
    C79    H19       1.08910      .   S
    C79    C81       1.39179      .   S
    C139   H54       1.08909      .   S
    C139   C141      1.39088      .   S
    O177   H16       0.97489      .   S
    C143   C141      1.40391      .   S
    C143   C144      1.49502      .   S
    C83    C81       1.40431      .   S
    C83    C84       1.50003      .   S
    C128   O102      1.26097      .   S
    C128   C127      1.49959      .   S
    O212   Zn1       2.13149      .   S
    O212   C144      1.26316      .   S
    C93    O188      1.26462      .   S
    C93    C94       1.49884      .   S
    O182   Zn1       2.14764      .   S
    O182   C84       1.26430      .   S
    C81    H21       1.08865      .   S
    C141   H56       1.08836      .   S
    Zn1    O102      2.14628      .   S
    Zn1    O188      2.13045      .   S
    C126   C127      1.40332      .   S
    C126   C124      1.39126      .   S
    Zn31   O198      1.93925      .   S
    Zn0    O178      2.03553  1_545   S
    Zn0    O228      1.93034      .   S
    C95    C94       1.40385      .   S
    C95    C97       1.39155      .   S
    C144   O213      1.29172      .   S
    C84    O183      1.29167      .   S
    H44    C124      1.08851      .   S
    H29    C97       1.08822      .   S
    H17    O178      0.97503      .   S
    C127   C125      1.40339      .   S
    C94    C96       1.40321      .   S
    C124   C122      1.40331      .   S
    C97    C103      1.40287      .   S
    O228   C168      1.29156      .   S
    O198   C112      1.29148      .   S
    O183   Zn3       1.93928      .   S
    O213   Zn4       1.92830      .   S
    H71    C165      1.08848      .   S
    H37    C109      1.08865      .   S
    C125   H45       1.08830      .   S
    C125   C123      1.39147      .   S
    C96    H28       1.08850      .   S
    C96    C98       1.39120      .   S
    O193   H33       0.97506      .   S
    O193   Zn4       2.03691      .   S
    C122   C123      1.40384      .   S
    C122   C121      1.49876      .   S
    C103   C98       1.40356      .   S
    C103   C104      1.49931      .   S
    C112   O197      1.26444      .   S
    C112   C111      1.50010      .   S
    C168   O227      1.26302      .   S
    C168   C167      1.49491      .   S
    O100   Zn5       2.13226  1_665   S
    O100   C121      1.26458      .   S
    O190   Zn5       2.14221  1_565   S
    O190   C104      1.25989      .   S
    C123   H43       1.08857      .   S
    Zn4    O192      2.03597      .   S
    Zn4    O200      1.92840      .   S
    Zn3    O222      1.93685      .   S
    C98    H30       1.08824      .   S
    Zn5    O197      2.14817      .   S
    Zn5    O227      2.12743  1_455   S
    C165   C167      1.40390      .   S
    C165   C163      1.39057      .   S
    C109   C111      1.40433      .   S
    C109   C107      1.39127      .   S
    C121   O101      1.29023      .   S
    C104   O191      1.29498      .   S
    H69    C163      1.08843      .   S
    H32    O192      0.97494      .   S
    C167   C166      1.40257      .   S
    C111   C110      1.40311      .   S
    H35    C107      1.08871      .   S
    C163   C162      1.40282      .   S
    C107   C106      1.40296      .   S
    O200   C113      1.29286      .   S
    O222   C153      1.29164      .   S
    O101   Zn6       1.93937      .   S
    O191   Zn14      1.93773  1_565   S
    H40    C116      1.08786      .   S
    C110   H38       1.08860      .   S
    C110   C108      1.39157      .   S
    H66    C156      1.08868      .   S
    C166   H72       1.08860      .   S
    C166   C164      1.38988      .   S
    O194   H34       0.97589      .   S
    O194   Zn6       2.04248  1_445   S
    C162   C164      1.40320      .   S
    C162   C161      1.49489      .   S
    C106   C108      1.40439      .   S
    C106   C105      1.49968      .   S
    C153   O221      1.26452      .   S
    C153   C154      1.49971      .   S
    C113   O199      1.26208      .   S
    C113   C114      1.49484      .   S
    O225   Zn15      2.13085      .   S
    O225   C161      1.26235      .   S
    O195   Zn15      2.15165      .   S
    O195   C105      1.26446      .   S
    C108   H36       1.08868      .   S
    Zn6    O220      2.04267  1_655   S
    Zn6    O217      1.94000  1_565   S
    C164   H70       1.08787      .   S
    Zn15   O221      2.15093      .   S
    Zn15   O199      2.13061      .   S
    C116   C114      1.40314      .   S
    C116   C118      1.38993      .   S
    Zn14   O230      1.93716      .   S
    C156   C154      1.40444      .   S
    C156   C158      1.39163      .   S
    C161   O226      1.29172      .   S
    C105   O196      1.29106      .   S
    H42    C118      1.08869      .   S
    H64    O220      0.97503      .   S
    C154   C155      1.40299      .   S
    H68    C158      1.08880      .   S
    C114   C115      1.40280      .   S
    C118   C119      1.40261      .   S
    C158   C159      1.40299      .   S
    O217   C152      1.29434      .   S
    O230   C169      1.29135      .   S
    O196   Zn11      1.93728      .   S
    O226   Zn12      1.92860      .   S
    H61    C150      1.08831      .   S
    H73    C171      1.08097      .   S
    C155   H65       1.08861      .   S
    C155   C157      1.39127      .   S
    C115   H39       1.08825      .   S
    C115   C117      1.39047      .   S
    O218   H62       0.97490      .   S
    O218   Zn12      2.03487      .   S
    C159   C157      1.40441      .   S
    C159   C160      1.50017      .   S
    C119   C117      1.40375      .   S
    C119   C120      1.49481      .   S
    C152   O216      1.26075      .   S
    C152   C151      1.49919      .   S
    O201   Zn13      2.12795  1_455   S
    O201   C120      1.26300      .   S
    C169   O229      1.26418      .   S
    C169   C170      1.49930      .   S
    O223   Zn13      2.14778      .   S
    O223   C160      1.26490      .   S
    C157   H67       1.08848      .   S
    C117   H41       1.08845      .   S
    C150   C151      1.40318      .   S
    C150   C148      1.39147      .   S
    Zn13   O216      2.13085  1_565   S
    Zn13   O229      2.13970  1_665   S
    Zn12   O219      2.03700      .   S
    Zn12   O187      1.92905      .   S
    Zn11   O209      1.93953      .   S
    C171   C170      1.40952      .   S
    C171   C173      1.39404      .   S
    C120   O99       1.29054      .   S
    C160   O224      1.29164      .   S
    H59    C148      1.08849      .   S
    H75    C173      1.08825      .   S
    H63    O219      0.97510      .   S
    C151   C149      1.40350      .   S
    C170   C172      1.40330      .   S
    C148   C146      1.40341      .   S
    C173   C175      1.40346      .   S
    O187   C92       1.29184      .   S
    O209   C136      1.29186      .   S
    O224   Zn7       1.93915      .   S
    O99    Zn8       1.92962      .   S
    H25    C89       1.08825      .   S
    C149   H60       1.08819      .   S
    C149   C147      1.39136      .   S
    H52    C133      1.08870      .   S
    C172   H74       1.07966      .   S
    C172   C174      1.39179      .   S
    O204   H48       0.97639      .   S
    O204   Zn7       2.03095  1_445   S
    C146   C147      1.40381      .   S
    C146   C145      1.49897      .   S
    C175   C174      1.40340      .   S
    C175   C176      1.49941      .   S
    C136   O208      1.26426      .   S
    C136   C135      1.50000      .   S
    C92    O186      1.26283      .   S
    C92    C91       1.49498      .   S
    O214   Zn9       2.13578      .   S
    O214   C145      1.26429      .   S
    O231   Zn9       2.13261      .   S
    O231   C176      1.26088      .   S
    C147   H58       1.08856      .   S
    Zn7    O181      1.93942  1_565   S
    Zn8    O203      2.03578      .   S
    Zn8    O211      1.92703  1_565   S
    Zn9    O208      2.14577      .   S
    Zn9    O186      2.13096      .   S
    C174   H76       1.08822      .   S
    C89    C91       1.40376      .   S
    C89    C87       1.39051      .   S
    C133   C135      1.40426      .   S
    C133   C131      1.39139      .   S
    C145   O215      1.29082      .   S
    C176   O232      1.29428      .   S
    H23    C87       1.08852      .   S
    H47    O203      0.97489      .   S
    C91    C90       1.40282      .   S
    C135   C134      1.40306      .   S
    H50    C131      1.08866      .   S
    C87    C86       1.40269      .   S
    C131   C130      1.40291      .   S
    O211   C137      1.29274      .   S
    O181   C77       1.29115      .   S
    O215   Zn10      1.93767      .   S
    C134   H53       1.08886      .   S
    C134   C132      1.39152      .   S
    C90    H26       1.08863      .   S
    C90    C88       1.38991      .   S
    O205   H49       0.97492      .   S
    O205   Zn10      2.04522      .   S
    C86    C88       1.40326      .   S
    C130   C132      1.40446      .   S
    O177   Zn31      2.04895  1_655   S
    O177   Zn0       2.03814      .   S
    O178   Zn31      2.03930  1_665   S
    O178   Zn5       2.08529  1_665   S
    O179   Zn1       2.07824      .   S
    O179   Zn10      2.04760  1_554   S
    O192   Zn3       2.04744      .   S
    O192   Zn15      2.07262      .   S
    O193   Zn1       2.08162      .   S
    O193   Zn3       2.04054      .   S
    O194   Zn5       2.08119      .   S
    O194   Zn14      2.04900      .   S
    O203   Zn7       2.04888  1_455   S
    O204   Zn8       2.04707  1_545   S
    O204   Zn13      2.08541  1_445   S
    O205   Zn2       2.04677  1_556   S
    O205   Zn9       2.07854      .   S
    O218   Zn11      2.04747      .   S
    O218   Zn15      2.07183      .   S
    O219   Zn9       2.08451      .   S
    O219   Zn11      2.04051      .   S
    O220   Zn13      2.07967  1_455   S
    O220   Zn14      2.04828  1_565   S
