# CIF file generated by openbabel 2.4.90, see http://openbabel.sf.net
data_I
_chemical_name_common ''
_cell_length_a 10.412
_cell_length_b 18.782
_cell_length_c 27.669
_cell_angle_alpha 90.002
_cell_angle_beta 89.095
_cell_angle_gamma 89.994
_space_group_name_H-M_alt 'P 1'
_space_group_name_Hall 'P 1'
loop_
    _symmetry_equiv_pos_as_xyz
    x,y,z
loop_
    _atom_site_label
    _atom_site_type_symbol
    _atom_site_fract_x
    _atom_site_fract_y
    _atom_site_fract_z
    _atom_site_occupancy
    H0      H    0.35661   0.67539   0.51664   1.000
    H1      H    0.85663   0.67540   0.51660   1.000
    H2      H    0.24168   0.51660   0.41374   1.000
    H3      H    0.74168   0.51661   0.41372   1.000
    H4      H    0.06717   0.59757   0.38564   1.000
    H5      H    0.56715   0.59758   0.38563   1.000
    H6      H    0.03647   0.71583   0.42401   1.000
    H7      H    0.53645   0.71583   0.42401   1.000
    H8      H    0.99579   0.82949   0.66444   1.000
    H9      H    0.49577   0.82949   0.66443   1.000
    H10     H    0.12304   0.89027   0.80602   1.000
    H11     H    0.62304   0.89025   0.80601   1.000
    H12     H    0.29469   0.96524   0.76843   1.000
    H13     H    0.79471   0.96522   0.76842   1.000
    H14     H    0.32199   0.96770   0.67860   1.000
    H15     H    0.82201   0.96768   0.67861   1.000
    H16     H    0.29942   0.66708   0.88956   1.000
    H17     H    0.79943   0.66708   0.88956   1.000
    H18     H    0.08517   0.65567   0.75000   1.000
    H19     H    0.58517   0.65569   0.75800   1.000
    H20     H    0.43732   0.56670   0.79638   1.000
    H21     H    0.93731   0.56669   0.79637   1.000
    H22     H    0.47141   0.52872   0.88154   1.000
    H23     H    0.97140   0.52872   0.88154   1.000
    H24     H    0.14321   0.17544   0.98332   1.000
    H25     H    0.64325   0.17542   0.98335   1.000
    H26     H    0.25787   0.01657   0.08620   1.000
    H27     H    0.75795   0.01661   0.08629   1.000
    H28     H    0.43245   0.09746   0.11436   1.000
    H29     H    0.93250   0.09753   0.11441   1.000
    H30     H    0.46331   0.21571   0.07600   1.000
    H31     H    0.96333   0.21576   0.07603   1.000
    H32     H    0.50402   0.32953   0.83566   1.000
    H33     H    0.00000   0.32952   0.83566   1.000
    H34     H    0.37657   0.39038   0.69412   1.000
    H35     H    0.87657   0.39038   0.69412   1.000
    H36     H    0.20491   0.46532   0.73170   1.000
    H37     H    0.70491   0.46531   0.73177   1.000
    H38     H    0.17773   0.46774   0.82159   1.000
    H39     H    0.67773   0.46773   0.82159   1.000
    H40     H    0.20034   0.16713   0.61052   1.000
    H41     H    0.70034   0.16714   0.61052   1.000
    H42     H    0.41453   0.15576   0.74210   1.000
    H43     H    0.91451   0.15577   0.74210   1.000
    H44     H    0.06241   0.06676   0.70375   1.000
    H45     H    0.56242   0.06676   0.70375   1.000
    H46     H    0.02836   0.02876   0.61850   1.000
    H47     H    0.52836   0.02876   0.61858   1.000
    H48     H    0.14321   0.32456   0.48330   1.000
    H49     H    0.64319   0.32456   0.48336   1.000
    H50     H    0.25790   0.48338   0.58627   1.000
    H51     H    0.75791   0.48337   0.58628   1.000
    H52     H    0.43244   0.40245   0.61440   1.000
    H53     H    0.93246   0.40244   0.61440   1.000
    H54     H    0.46330   0.28421   0.57602   1.000
    H55     H    0.96332   0.28420   0.57601   1.000
    H56     H    0.50400   0.17046   0.33562   1.000
    H57     H    0.00000   0.17046   0.33563   1.000
    H58     H    0.37667   0.10963   0.19406   1.000
    H59     H    0.87667   0.10963   0.19407   1.000
    H60     H    0.20504   0.03467   0.23169   1.000
    H61     H    0.70503   0.03468   0.23169   1.000
    H62     H    0.17779   0.03224   0.32150   1.000
    H63     H    0.67779   0.03224   0.32150   1.000
    H64     H    0.20041   0.33287   0.11054   1.000
    H65     H    0.70042   0.33286   0.11053   1.000
    H66     H    0.41455   0.34421   0.24213   1.000
    H67     H    0.91455   0.34420   0.24213   1.000
    H68     H    0.06244   0.43321   0.20379   1.000
    H69     H    0.56244   0.43321   0.20379   1.000
    H70     H    0.02839   0.47123   0.11863   1.000
    H71     H    0.52839   0.47122   0.11863   1.000
    H72     H    0.35664   0.82459   0.01665   1.000
    H73     H    0.85660   0.82460   0.01661   1.000
    H74     H    0.24174   0.98342   0.91376   1.000
    H75     H    0.74166   0.98337   0.91369   1.000
    H76     H    0.06720   0.90248   0.88566   1.000
    H77     H    0.56714   0.90241   0.88561   1.000
    H78     H    0.03647   0.78423   0.92402   1.000
    H79     H    0.53645   0.78417   0.92399   1.000
    H80     H    0.99579   0.67050   0.16441   1.000
    H81     H    0.49578   0.67051   0.16440   1.000
    H82     H    0.12313   0.60969   0.30597   1.000
    H83     H    0.62313   0.60971   0.30597   1.000
    H84     H    0.29481   0.53474   0.26835   1.000
    H85     H    0.79482   0.53475   0.26835   1.000
    H86     H    0.32207   0.53230   0.17854   1.000
    H87     H    0.82207   0.53231   0.17854   1.000
    H88     H    0.29947   0.83289   0.38956   1.000
    H89     H    0.79948   0.83289   0.38957   1.000
    H90     H    0.08517   0.84432   0.25801   1.000
    H91     H    0.58518   0.84431   0.25802   1.000
    C92     C    0.96480   0.06758   0.63566   1.000
    C93     C    0.30478   0.29700   0.52739   1.000
    H94     H    0.43733   0.93330   0.29640   1.000
    H95     H    0.93731   0.93331   0.29640   1.000
    H96     H    0.47143   0.97127   0.38157   1.000
    H97     H    0.97142   0.97127   0.38150   1.000
    C98     C    0.19503   0.70299   0.47262   1.000
    C99     C    0.69503   0.70300   0.47261   1.000
    C100    C    0.29327   0.65800   0.48808   1.000
    C101    C    0.79327   0.65800   0.48808   1.000
    C102    C    0.30973   0.59041   0.46734   1.000
    C103    C    0.80973   0.59042   0.46733   1.000
    C104    C    0.22848   0.56910   0.42977   1.000
    C105    C    0.72845   0.56910   0.42977   1.000
    C106    C    0.13148   0.61434   0.41417   1.000
    C107    C    0.63148   0.61436   0.41416   1.000
    C108    C    0.11347   0.68088   0.43566   1.000
    C109    C    0.61346   0.68089   0.43565   1.000
    C110    C    0.41068   0.54232   0.48478   1.000
    C111    C    0.91067   0.54233   0.48477   1.000
    C112    C    0.16044   0.89907   0.66611   1.000
    C113    C    0.66043   0.89907   0.66610   1.000
    C114    C    0.06216   0.85835   0.68724   1.000
    C115    C    0.56215   0.85834   0.68723   1.000
    C116    C    0.04960   0.85406   0.73776   1.000
    C117    C    0.54958   0.85406   0.73776   1.000
    C118    C    0.22852   0.93092   0.92979   1.000
    C119    C    0.72844   0.93088   0.92974   1.000
    C120    C    0.13151   0.88569   0.91419   1.000
    C121    C    0.63148   0.88563   0.91413   1.000
    C122    C    0.11349   0.81915   0.93567   1.000
    C123    C    0.13345   0.89347   0.76600   1.000
    C124    C    0.63345   0.89345   0.76689   1.000
    C125    C    0.22966   0.93507   0.74569   1.000
    C126    C    0.72967   0.93505   0.74569   1.000
    C127    C    0.24500   0.93693   0.69551   1.000
    C128    C    0.74501   0.93692   0.69551   1.000
    C129    C    0.44975   0.80885   0.76017   1.000
    C130    C    0.94976   0.80885   0.76018   1.000
    C131    C    0.28500   0.72240   0.79979   1.000
    C132    C    0.78501   0.72239   0.79980   1.000
    C133    C    0.13884   0.59447   0.89046   1.000
    C134    C    0.63884   0.59447   0.89047   1.000
    C135    C    0.21948   0.64570   0.86930   1.000
    C136    C    0.71950   0.64569   0.86930   1.000
    C137    C    0.19917   0.66884   0.82188   1.000
    C138    C    0.69916   0.66885   0.82189   1.000
    C139    C    0.09826   0.63897   0.79530   1.000
    C140    C    0.59828   0.63897   0.79531   1.000
    C141    C    0.01628   0.58915   0.81681   1.000
    C142    C    0.51627   0.58916   0.81681   1.000
    C143    C    0.03495   0.56754   0.86440   1.000
    C144    C    0.53496   0.56754   0.86447   1.000
    C145    C    0.30478   0.20296   0.02737   1.000
    C146    C    0.80480   0.20298   0.02740   1.000
    C147    C    0.20650   0.15801   0.01180   1.000
    C148    C    0.70655   0.15801   0.01192   1.000
    C149    C    0.18996   0.09042   0.03262   1.000
    C150    C    0.69003   0.09044   0.03267   1.000
    C151    C    0.27117   0.06906   0.07019   1.000
    C152    C    0.77124   0.06910   0.07020   1.000
    C153    C    0.36818   0.11427   0.08582   1.000
    C154    C    0.86821   0.11433   0.08587   1.000
    C155    C    0.38628   0.18080   0.06434   1.000
    C156    C    0.88630   0.18085   0.06438   1.000
    C157    C    0.08897   0.04237   0.01518   1.000
    C158    C    0.58908   0.04236   0.01522   1.000
    C159    C    0.33935   0.39911   0.83405   1.000
    C160    C    0.83934   0.39910   0.83405   1.000
    C161    C    0.43760   0.35840   0.81288   1.000
    C162    C    0.93760   0.35839   0.81289   1.000
    C163    C    0.45010   0.35413   0.76230   1.000
    C164    C    0.95011   0.35413   0.76236   1.000
    C165    C    0.36620   0.39355   0.73325   1.000
    C166    C    0.86621   0.39355   0.73325   1.000
    C167    C    0.26998   0.43513   0.75449   1.000
    C168    C    0.76998   0.43512   0.75449   1.000
    C169    C    0.25471   0.43698   0.80467   1.000
    C170    C    0.75471   0.43697   0.80467   1.000
    C171    C    0.04994   0.30893   0.73992   1.000
    C172    C    0.54993   0.30893   0.73992   1.000
    C173    C    0.21470   0.22247   0.70029   1.000
    C174    C    0.71469   0.22248   0.70029   1.000
    C175    C    0.36093   0.09451   0.60960   1.000
    C176    C    0.86093   0.09451   0.60965   1.000
    C177    C    0.28027   0.14575   0.63079   1.000
    C178    C    0.78026   0.14576   0.63079   1.000
    C179    C    0.30057   0.16892   0.67821   1.000
    C180    C    0.80056   0.16893   0.67820   1.000
    C181    C    0.40146   0.13905   0.70480   1.000
    C182    C    0.90144   0.13905   0.70479   1.000
    C183    C    0.48347   0.08922   0.68331   1.000
    C184    C    0.98346   0.08922   0.68331   1.000
    C185    C    0.46482   0.06758   0.63566   1.000
    C186    C    0.80477   0.29699   0.52700   1.000
    C187    C    0.20652   0.34197   0.51190   1.000
    C188    C    0.70652   0.34197   0.51191   1.000
    C189    C    0.18998   0.40955   0.53265   1.000
    C190    C    0.68998   0.40955   0.53266   1.000
    C191    C    0.27119   0.43089   0.57023   1.000
    C192    C    0.77121   0.43089   0.57023   1.000
    C193    C    0.36818   0.38566   0.58585   1.000
    C194    C    0.86818   0.38565   0.58586   1.000
    C195    C    0.38627   0.31913   0.56436   1.000
    C196    C    0.88628   0.31912   0.56437   1.000
    C197    C    0.08900   0.45762   0.51521   1.000
    C198    C    0.58900   0.45762   0.51520   1.000
    C199    C    0.33935   0.10087   0.33399   1.000
    C200    C    0.83935   0.10088   0.33400   1.000
    C201    C    0.43762   0.14159   0.31284   1.000
    C202    C    0.93761   0.14159   0.31284   1.000
    C203    C    0.45015   0.14586   0.26231   1.000
    C204    C    0.95015   0.14586   0.26232   1.000
    C205    C    0.36629   0.10644   0.23319   1.000
    C206    C    0.86629   0.10644   0.23320   1.000
    C207    C    0.27007   0.06486   0.25441   1.000
    C208    C    0.77006   0.06487   0.25442   1.000
    C209    C    0.25477   0.06301   0.30459   1.000
    C210    C    0.75476   0.06301   0.30460   1.000
    C211    C    0.04998   0.19106   0.23990   1.000
    C212    C    0.54998   0.19106   0.23989   1.000
    C213    C    0.21475   0.27752   0.20030   1.000
    C214    C    0.71476   0.27751   0.20029   1.000
    C215    C    0.36098   0.40548   0.10969   1.000
    C216    C    0.86098   0.40549   0.10969   1.000
    C217    C    0.28033   0.35423   0.13082   1.000
    C218    C    0.78033   0.35424   0.13081   1.000
    C219    C    0.30062   0.33107   0.17823   1.000
    C220    C    0.80063   0.33106   0.17822   1.000
    C221    C    0.40151   0.36092   0.20482   1.000
    C222    C    0.90149   0.36093   0.20482   1.000
    C223    C    0.48350   0.41076   0.18335   1.000
    C224    C    0.98349   0.41076   0.18334   1.000
    C225    C    0.46486   0.43240   0.13500   1.000
    C226    C    0.96485   0.43241   0.13569   1.000
    C227    C    0.19504   0.79702   0.97263   1.000
    C228    C    0.69503   0.79700   0.97259   1.000
    C229    C    0.29331   0.84199   0.98809   1.000
    C230    C    0.79327   0.84199   0.98805   1.000
    C231    C    0.30977   0.90958   0.96735   1.000
    C232    C    0.80971   0.90957   0.96730   1.000
    C233    C    0.61346   0.81911   0.93563   1.000
    C234    C    0.41075   0.95765   0.98479   1.000
    C235    C    0.91065   0.95766   0.98470   1.000
    C236    C    0.16046   0.60092   0.16605   1.000
    C237    C    0.66046   0.60093   0.16605   1.000
    C238    C    0.06219   0.64165   0.18720   1.000
    C239    C    0.56217   0.64165   0.18720   1.000
    C240    C    0.04963   0.64591   0.23773   1.000
    C241    C    0.54963   0.64593   0.23772   1.000
    C242    C    0.13353   0.60651   0.26684   1.000
    C243    C    0.63352   0.60652   0.26684   1.000
    C244    C    0.22975   0.56491   0.24562   1.000
    C245    C    0.72976   0.56493   0.24560   1.000
    C246    C    0.24507   0.56306   0.19540   1.000
    C247    C    0.74507   0.56307   0.19545   1.000
    C248    C    0.44979   0.69113   0.26015   1.000
    C249    C    0.94979   0.69112   0.26015   1.000
    C250    C    0.28504   0.77759   0.29979   1.000
    C251    C    0.78505   0.77758   0.29979   1.000
    C252    C    0.13888   0.90552   0.39048   1.000
    C253    C    0.63887   0.90552   0.39049   1.000
    C254    C    0.21952   0.85429   0.36931   1.000
    C255    C    0.71953   0.85429   0.36931   1.000
    C256    C    0.19919   0.83115   0.32189   1.000
    C257    C    0.69920   0.83114   0.32190   1.000
    C258    C    0.09828   0.86102   0.29532   1.000
    C259    C    0.59829   0.86102   0.29532   1.000
    C260    C    0.01630   0.91085   0.31683   1.000
    C261    C    0.51629   0.91084   0.31680   1.000
    C262    C    0.03498   0.93246   0.36449   1.000
    C263    C    0.53498   0.93245   0.36449   1.000
    N264    N    0.43045   0.48037   0.46062   1.000
    N265    N    0.93037   0.48035   0.46063   1.000
    N266    N    0.47831   0.56278   0.52390   1.000
    N267    N    0.97831   0.56279   0.52389   1.000
    N268    N    0.37106   0.77187   0.73066   1.000
    N269    N    0.87109   0.77185   0.73066   1.000
    N270    N    0.28664   0.72802   0.75090   1.000
    N271    N    0.78665   0.72802   0.75092   1.000
    N272    N    0.35391   0.76474   0.82937   1.000
    N273    N    0.85394   0.76473   0.82938   1.000
    N274    N    0.43778   0.80911   0.80903   1.000
    N275    N    0.93780   0.80910   0.80904   1.000
    N276    N    0.06923   0.98040   0.03933   1.000
    N277    N    0.56939   0.98037   0.03930   1.000
    N278    N    0.02128   0.06285   0.97607   1.000
    N279    N    0.52146   0.06281   0.97609   1.000
    N280    N    0.12869   0.27196   0.76943   1.000
    N281    N    0.62867   0.27197   0.76943   1.000
    N282    N    0.21313   0.22813   0.74917   1.000
    N283    N    0.71310   0.22812   0.74916   1.000
    N284    N    0.14572   0.26479   0.67072   1.000
    N285    N    0.64569   0.26479   0.67071   1.000
    N286    N    0.06187   0.30917   0.69100   1.000
    N287    N    0.56183   0.30917   0.69106   1.000
    N288    N    0.06928   0.51959   0.53930   1.000
    N289    N    0.56934   0.51961   0.53934   1.000
    N290    N    0.02133   0.43715   0.47610   1.000
    N291    N    0.52133   0.43715   0.47611   1.000
    N292    N    0.12871   0.22801   0.26942   1.000
    N293    N    0.62871   0.22800   0.26941   1.000
    N294    N    0.21315   0.27185   0.24917   1.000
    N295    N    0.71310   0.27187   0.24910   1.000
    N296    N    0.14582   0.23520   0.17071   1.000
    N297    N    0.64585   0.23518   0.17070   1.000
    N298    N    0.06195   0.19082   0.19104   1.000
    N299    N    0.56190   0.19084   0.19103   1.000
    N300    N    0.43046   0.01963   0.96064   1.000
    N301    N    0.93030   0.01966   0.96062   1.000
    N302    N    0.47849   0.93716   0.02388   1.000
    N303    N    0.97829   0.93720   0.02387   1.000
    N304    N    0.37105   0.72810   0.23060   1.000
    N305    N    0.87109   0.72812   0.23065   1.000
    N306    N    0.28663   0.77195   0.25091   1.000
    N307    N    0.78666   0.77196   0.25092   1.000
    N308    N    0.35395   0.73523   0.32936   1.000
    N309    N    0.85401   0.73525   0.32936   1.000
    N310    N    0.43784   0.69086   0.30901   1.000
    N311    N    0.93786   0.69087   0.30901   1.000
loop_
    _geom_bond_atom_site_label_1
    _geom_bond_atom_site_label_2
    _geom_bond_distance
    _geom_bond_site_symmetry_2
    _ccdc_geom_bond_type
    C147   C145      1.39982      .   S
    C147   C149      1.40347      .   S
    C147   H24       1.08573  1_554   S
    C148   C146      1.39903      .   S
    C148   C150      1.40250      .   S
    C148   H25       1.08750  1_554   S
    C157   C149      1.47291      .   S
    C157   N276      1.35619  1_545   S
    C157   N278      1.35638  1_554   S
    C158   C150      1.47292      .   S
    C158   N277      1.35553  1_545   S
    C158   N279      1.35625  1_554   S
    H73    C230      1.08739  1_554   S
    H72    C229      1.08743  1_554   S
    N303   N276      1.32320  1_655   S
    N303   C235      1.35735  1_554   S
    N302   N277      1.32264      .   S
    N302   C234      1.35630  1_554   S
    C145   C155      1.40247      .   S
    C146   C156      1.40260      .   S
    C149   C151      1.40863      .   S
    C150   C152      1.40771      .   S
    C155   H30       1.08876      .   S
    C155   C153      1.39532      .   S
    C156   H31       1.08877      .   S
    C156   C154      1.39525      .   S
    C151   C153      1.39358      .   S
    C151   H26       1.08879      .   S
    C152   C154      1.39396      .   S
    C152   H27       1.08954      .   S
    C153   H28       1.08985      .   S
    C154   H29       1.08985      .   S
    C216   C218      1.39924      .   S
    C216   C226      1.40266      .   S
    C215   C217      1.39936      .   S
    C215   C225      1.39276      .   S
    H65    C218      1.08771      .   S
    H64    C217      1.08777      .   S
    H71    C225      1.07942      .   S
    H70    C226      1.08749  1_455   S
    C218   C220      1.40131      .   S
    C217   C219      1.40124      .   S
    C225   C223      1.41448      .   S
    C226   C224      1.39619      .   S
    H81    C239      1.08781      .   S
    H80    C238      1.08765  1_655   S
    C236   C238      1.39837      .   S
    C236   C246      1.40133      .   S
    C237   C239      1.39840      .   S
    C237   C247      1.40211      .   S
    N297   N299      1.32606      .   S
    N297   C214      1.35492      .   S
    N296   N298      1.32603      .   S
    N296   C213      1.35493      .   S
    C220   C214      1.47205      .   S
    C220   C222      1.40846      .   S
    C219   C213      1.47206      .   S
    C219   C221      1.40838      .   S
    H87    C247      1.08787      .   S
    H86    C246      1.08729      .   S
    C224   H68       1.09017  1_655   S
    C224   C222      1.39371      .   S
    C223   H69       1.08993      .   S
    C223   C221      1.39361      .   S
    C238   C240      1.40444      .   S
    C239   C241      1.40417      .   S
    N299   C212      1.35565      .   S
    N298   C211      1.35568      .   S
    H58    C205      1.08802      .   S
    H59    C206      1.08802      .   S
    C246   C244      1.39658      .   S
    C247   C245      1.39466      .   S
    C214   N295      1.35451      .   S
    C213   N294      1.35621      .   S
    C222   H67       1.08962      .   S
    C221   H66       1.08954      .   S
    N304   N306      1.32324      .   S
    N304   C248      1.35793      .   S
    N305   N307      1.32278      .   S
    N305   C249      1.35705      .   S
    H61    C208      1.09043      .   S
    H60    C207      1.09027      .   S
    C205   C207      1.39283      .   S
    C205   C203      1.40780      .   S
    C206   C208      1.39284      .   S
    C206   C204      1.40780      .   S
    C241   C248      1.47171      .   S
    C241   C243      1.40785      .   S
    C240   C249      1.47169  1_455   S
    C240   C242      1.40772      .   S
    C212   C203      1.47164      .   S
    C212   N293      1.35715      .   S
    C211   C204      1.47172  1_455   S
    C211   N292      1.35714      .   S
    C245   C243      1.39313      .   S
    C245   H85       1.09073      .   S
    C244   C242      1.39289      .   S
    C244   H84       1.09041      .   S
    N295   N293      1.32343      .   S
    N294   N292      1.32270      .   S
    N306   C250      1.35643      .   S
    N307   C251      1.35614      .   S
    C207   C209      1.39548      .   S
    C208   C210      1.39547      .   S
    H90    C258      1.08956      .   S
    H91    C259      1.08935      .   S
    C248   N310      1.35567      .   S
    C249   N311      1.35565      .   S
    C203   C201      1.40443      .   S
    C204   C202      1.40416      .   S
    C242   H82       1.08802      .   S
    C243   H83       1.08802      .   S
    C258   C260      1.39366      .   S
    C258   C256      1.40844      .   S
    C259   C261      1.39333      .   S
    C259   C257      1.40856      .   S
    H94    C261      1.08960      .   S
    H95    C260      1.09017  1_655   S
    C250   C256      1.47214      .   S
    C250   N308      1.35491      .   S
    C251   C257      1.47222      .   S
    C251   N309      1.35490      .   S
    C209   H62       1.08791      .   S
    C209   C199      1.40210      .   S
    C210   H63       1.08779      .   S
    C210   C200      1.40209      .   S
    N310   N308      1.32606      .   S
    N311   N309      1.32605      .   S
    C201   C199      1.39831      .   S
    C201   H56       1.08762      .   S
    C202   C200      1.39843      .   S
    C202   H57       1.06140  1_655   S
    C261   C263      1.39712      .   S
    C260   C262      1.39629      .   S
    C256   C254      1.40143      .   S
    C257   C255      1.40121      .   S
    C262   H97       1.08677  1_455   S
    C262   C252      1.40280      .   S
    C263   H96       1.08751      .   S
    C263   C253      1.40291      .   S
    C254   H88       1.08767      .   S
    C254   C252      1.39941      .   S
    C255   H89       1.08779      .   S
    C255   C253      1.39952      .   S
    H5     C107      1.08985      .   S
    H4     C106      1.08969      .   S
    H3     C105      1.08912      .   S
    H2     C104      1.08902      .   S
    C107   C105      1.39361      .   S
    C107   C109      1.39527      .   S
    C106   C104      1.39360      .   S
    C106   C108      1.39536      .   S
    H7     C109      1.08877      .   S
    H6     C108      1.08881      .   S
    C105   C103      1.40866      .   S
    C104   C102      1.40867      .   S
    C109   C99       1.40252      .   S
    C108   C98       1.40241      .   S
    N264   N291      1.32324      .   S
    N264   C110      1.35594      .   S
    N265   N290      1.32336  1_655   S
    N265   C111      1.35597      .   S
    C103   C111      1.47286      .   S
    C103   C101      1.40251      .   S
    C102   C110      1.47289      .   S
    C102   C100      1.40246      .   S
    C99    C101      1.39906      .   S
    C98    C100      1.39899      .   S
    N290   C197      1.35628      .   S
    N291   C198      1.35582      .   S
    H48    C187      1.08820      .   S
    H49    C188      1.08731      .   S
    C111   N267      1.35622      .   S
    C110   N266      1.35620      .   S
    C101   H1        1.08678      .   S
    C100   H0        1.08743      .   S
    C187   C93       1.39912      .   S
    C187   C189      1.40252      .   S
    C188   C186      1.39562      .   S
    C188   C190      1.40252      .   S
    C198   C190      1.47308      .   S
    C198   N289      1.35613      .   S
    C197   C189      1.47287      .   S
    C197   N288      1.35520      .   S
    N267   N288      1.32280  1_655   S
    N266   N289      1.32320      .   S
    C186   C196      1.41066      .   S
    C93    C195      1.40235      .   S
    C189   C191      1.40873      .   S
    C190   C192      1.40866      .   S
    C195   H54       1.08882      .   S
    C195   C193      1.39531      .   S
    C196   H55       1.08871      .   S
    C196   C194      1.39526      .   S
    C191   C193      1.39354      .   S
    C191   H50       1.08904      .   S
    C192   C194      1.39358      .   S
    C192   H51       1.08905      .   S
    C193   H52       1.08990      .   S
    C194   H53       1.08979      .   S
    C175   C177      1.39993      .   S
    C175   C185      1.40363      .   S
    C176   C178      1.39936      .   S
    C176   C92       1.40287      .   S
    H40    C177      1.08770      .   S
    H41    C178      1.08764      .   S
    H46    C92       1.08861  1_455   S
    H47    C185      1.08757      .   S
    C177   C179      1.40149      .   S
    C178   C180      1.40130      .   S
    C92    C184      1.39616      .   S
    C185   C183      1.39612      .   S
    H9     C115      1.08767      .   S
    H8     C114      1.08769  1_655   S
    C113   C115      1.39833      .   S
    C113   C128      1.40209      .   S
    C112   C114      1.39831      .   S
    C112   C127      1.40194      .   S
    N285   N287      1.32610      .   S
    N285   C174      1.35498      .   S
    N284   N286      1.32528      .   S
    N284   C173      1.35482      .   S
    C180   C174      1.47212      .   S
    C180   C182      1.40842      .   S
    C179   C173      1.47202      .   S
    C179   C181      1.40848      .   S
    H14    C127      1.08798      .   S
    H15    C128      1.08785      .   S
    C183   H45       1.09000      .   S
    C183   C181      1.39371      .   S
    C184   H44       1.09008  1_655   S
    C184   C182      1.39360      .   S
    C115   C117      1.40448      .   S
    C114   C116      1.40420      .   S
    N286   C171      1.35730      .   S
    N287   C172      1.35563      .   S
    H34    C165      1.08798      .   S
    H35    C166      1.08798      .   S
    C127   C125      1.39552      .   S
    C128   C126      1.39552      .   S
    C174   N283      1.35616      .   S
    C173   N282      1.35646      .   S
    C182   H43       1.08963      .   S
    C181   H42       1.08931      .   S
    N269   N271      1.32276      .   S
    N269   C130      1.35725      .   S
    N268   N270      1.32256      .   S
    N268   C129      1.35708      .   S
    H36    C167      1.09159      .   S
    H37    C168      1.09046      .   S
    C166   C168      1.39291      .   S
    C166   C164      1.40787      .   S
    C165   C167      1.39290      .   S
    C165   C163      1.40694      .   S
    C116   C130      1.47179  1_455   S
    C116   C123      1.39361      .   S
    C117   C129      1.47159      .   S
    C117   C124      1.40780      .   S
    C172   C163      1.47102      .   S
    C172   N281      1.35720      .   S
    C171   C164      1.47179  1_455   S
    C171   N280      1.35720      .   S
    C126   C124      1.39282      .   S
    C126   H13       1.09025      .   S
    C125   C123      1.38290      .   S
    C125   H12       1.09039      .   S
    N283   N281      1.32275      .   S
    N282   N280      1.32263      .   S
    H18    C139      1.30131      .   S
    N270   C131      1.35670      .   S
    N271   C132      1.35642      .   S
    C167   C169      1.39543      .   S
    C168   C170      1.39544      .   S
    H19    C140      1.08966      .   S
    C129   N274      1.35569      .   S
    C130   N275      1.35568      .   S
    C163   C161      1.40577      .   S
    C164   C162      1.40439      .   S
    C123   H10       1.11252      .   S
    C124   H11       1.08778      .   S
    C139   C141      1.39376      .   S
    C139   C137      1.40849      .   S
    C140   C142      1.39363      .   S
    C140   C138      1.40840      .   S
    H21    C141      1.09024  1_655   S
    H20    C142      1.08995      .   S
    C131   C137      1.47212      .   S
    C131   N272      1.35491      .   S
    C132   C138      1.47209      .   S
    C132   N273      1.35491      .   S
    C170   H39       1.08787      .   S
    C170   C160      1.40200      .   S
    C169   H38       1.08787      .   S
    C169   C159      1.40200      .   S
    N274   N272      1.32604      .   S
    N275   N273      1.32602      .   S
    C161   C159      1.39836      .   S
    C161   H32       1.08775      .   S
    C162   C160      1.39827      .   S
    C162   H33       1.06105  1_655   S
    C141   C143      1.39448      .   S
    C142   C144      1.39640      .   S
    C137   C135      1.40142      .   S
    C138   C136      1.40129      .   S
    C143   H23       1.08835  1_455   S
    C143   C133      1.40375      .   S
    C144   H22       1.08746      .   S
    C144   C134      1.40283      .   S
    C136   H17       1.08770      .   S
    C136   C134      1.39949      .   S
    C135   H16       1.08775      .   S
    C135   C133      1.39938      .   S
    H77    C121      1.08965      .   S
    H76    C120      1.08980      .   S
    H75    C119      1.08910      .   S
    H74    C118      1.08905      .   S
    C121   C119      1.39362      .   S
    C121   C233      1.39531      .   S
    C120   C118      1.39355      .   S
    C120   C122      1.39532      .   S
    H79    C233      1.08878      .   S
    H78    C122      1.08878      .   S
    C119   C232      1.40859      .   S
    C118   C231      1.40860      .   S
    C233   C228      1.40245      .   S
    C122   C227      1.40251      .   S
    N301   N278      1.32330  1_655   S
    N301   C235      1.35560  1_545   S
    N300   N279      1.32326      .   S
    N300   C234      1.35632  1_545   S
    C232   C235      1.47249      .   S
    C232   C230      1.40249      .   S
    C231   C234      1.47297      .   S
    C231   C229      1.40256      .   S
    C228   C230      1.39903      .   S
    C227   C229      1.39901      .   S
