# CIF file generated by openbabel 2.4.90, see http://openbabel.sf.net
data_I
_chemical_name_common ''
_cell_length_a 17.383
_cell_length_b 18.645
_cell_length_c 18.184
_cell_angle_alpha 90.398
_cell_angle_beta 90.035
_cell_angle_gamma 90.007
_space_group_name_H-M_alt 'P 1'
_space_group_name_Hall 'P 1'
loop_
    _symmetry_equiv_pos_as_xyz
    x,y,z
loop_
    _atom_site_label
    _atom_site_type_symbol
    _atom_site_fract_x
    _atom_site_fract_y
    _atom_site_fract_z
    _atom_site_occupancy
    N0      N    0.74013   0.32169   0.02690   1.000
    N1      N    0.23716   0.07159   0.77566   1.000
    N2      N    0.73357   0.82121   0.52635   1.000
    N3      N    0.76113   0.43192   0.22545   1.000
    N4      N    0.25991   0.67812   0.97344   1.000
    N5      N    0.26634   0.17774   0.47363   1.000
    N6      N    0.76689   0.42652   0.72552   1.000
    N7      N    0.76167   0.92992   0.72349   1.000
    N8      N    0.23450   0.57144   0.27543   1.000
    N9      N    0.76289   0.92825   0.22397   1.000
    N10     N    0.23861   0.56830   0.77553   1.000
    N11     N    0.23781   0.06817   0.27611   1.000
    Zr12    Zr   0.75992   0.67939   0.97272   1.000
    O13     O    0.91527   0.67789   0.99141   1.000
    O14     O    0.77441   0.60686   0.06573   1.000
    O15     O    0.77524   0.75227   0.06471   1.000
    O16     O    0.60455   0.66062   0.97426   1.000
    O17     O    0.74760   0.58703   0.90064   1.000
    O18     O    0.74607   0.58874   0.04737   1.000
    O19     O    0.60455   0.69707   0.97151   1.000
    O20     O    0.74604   0.77009   0.04664   1.000
    O21     O    0.74625   0.77118   0.89963   1.000
    O22     O    0.91530   0.68026   0.95400   1.000
    O23     O    0.77619   0.60530   0.88184   1.000
    O24     O    0.77407   0.75279   0.88054   1.000
    Zr25    Zr   0.23338   0.81918   0.52744   1.000
    O26     O    0.22030   0.90998   0.45304   1.000
    O27     O    0.22015   0.91120   0.59978   1.000
    O28     O    0.07805   0.83786   0.52560   1.000
    O29     O    0.38882   0.82053   0.50858   1.000
    O30     O    0.24796   0.74658   0.43521   1.000
    O31     O    0.24905   0.89221   0.43498   1.000
    O32     O    0.24848   0.89310   0.61896   1.000
    O33     O    0.38885   0.81922   0.54610   1.000
    O34     O    0.24885   0.74580   0.61929   1.000
    O35     O    0.21864   0.72897   0.45323   1.000
    O36     O    0.07800   0.80164   0.52890   1.000
    O37     O    0.22090   0.72742   0.60021   1.000
    Zr38    Zr   0.24003   0.31960   0.02738   1.000
    O39     O    0.25362   0.22762   0.10035   1.000
    O40     O    0.25395   0.22923   0.95329   1.000
    O41     O    0.39548   0.30206   0.02864   1.000
    O42     O    0.22473   0.24715   0.93521   1.000
    O43     O    0.08468   0.32148   0.00870   1.000
    O44     O    0.22543   0.39274   0.93473   1.000
    O45     O    0.22569   0.24595   0.11942   1.000
    O46     O    0.22449   0.39321   0.11885   1.000
    O47     O    0.08470   0.31945   0.04620   1.000
    O48     O    0.39543   0.33840   0.02588   1.000
    O49     O    0.25279   0.41143   0.09973   1.000
    O50     O    0.25389   0.41056   0.95305   1.000
    Zr51    Zr   0.76672   0.17960   0.47263   1.000
    O52     O    0.61122   0.17838   0.49145   1.000
    O53     O    0.75257   0.25189   0.56504   1.000
    O54     O    0.75087   0.10625   0.56489   1.000
    O55     O    0.77992   0.08785   0.40013   1.000
    O56     O    0.92197   0.16082   0.47467   1.000
    O57     O    0.77957   0.08837   0.54686   1.000
    O58     O    0.92197   0.19713   0.47110   1.000
    O59     O    0.78176   0.26977   0.54700   1.000
    O60     O    0.77907   0.27188   0.40012   1.000
    O61     O    0.75111   0.25359   0.38105   1.000
    O62     O    0.75161   0.10619   0.38097   1.000
    O63     O    0.61120   0.17954   0.45393   1.000
loop_
    _geom_bond_atom_site_label_1
    _geom_bond_atom_site_label_2
    _geom_bond_distance
    _geom_bond_site_symmetry_2
    _ccdc_geom_bond_type
    Zr12   O13       2.72180      .   S
    N4     O13       5.99997  1_455   S
    Zr12   O14       2.18730  1_556   S
    N3     O14       4.38855      .   S
    Zr12   O15       2.16400  1_556   S
    N9     O15       4.36666      .   S
    Zr12   O16       2.72340      .   S
    N4     O16       5.99986      .   S
    Zr12   O17       2.16743      .   S
    N6     O17       4.36777      .   S
    Zr12   O18       2.18848  1_556   S
    N3     O18       4.38571      .   S
    Zr12   O19       2.72097      .   S
    N4     O19       6.00131      .   S
    Zr12   O20       2.16650  1_556   S
    N9     O20       4.36408      .   S
    Zr12   O21       2.18702      .   S
    N7     O21       4.38438      .   S
    Zr12   O22       2.72263      .   S
    N4     O22       6.00075  1_455   S
    Zr12   O23       2.16527      .   S
    N6     O23       4.36858      .   S
    Zr12   O24       2.18514      .   S
    N7     O24       4.38636      .   S
    Zr25   O26       2.18617      .   S
    N11    O26       4.39045  1_545   S
    Zr25   O27       2.16704      .   S
    N1     O27       4.37322  1_545   S
    Zr25   O28       2.72261      .   S
    N2     O28       5.99615  1_655   S
    Zr25   O29       2.72408      .   S
    N2     O29       6.00134      .   S
    Zr25   O30       2.16282      .   S
    N8     O30       4.36205      .   S
    Zr25   O31       2.18797      .   S
    N11    O31       4.39075  1_545   S
    Zr25   O32       2.16929      .   S
    N1     O32       4.37063  1_545   S
    Zr25   O33       2.72357      .   S
    N2     O33       6.00347      .   S
    Zr25   O34       2.18297      .   S
    N10    O34       4.38036      .   S
    Zr25   O35       2.16414      .   S
    N8     O35       4.36177      .   S
    Zr25   O36       2.72068      .   S
    N2     O36       5.99861  1_655   S
    Zr25   O37       2.18094      .   S
    N10    O37       4.38082      .   S
    Zr38   O39       2.18834      .   S
    N11    O39       4.38873      .   S
    Zr38   O40       2.16364  1_554   S
    N1     O40       4.36171      .   S
    Zr38   O41       2.72199      .   S
    N0     O41       6.00232      .   S
    Zr38   O42       2.16159  1_554   S
    N1     O42       4.36434      .   S
    Zr38   O43       2.72186      .   S
    N0     O43       5.99858  1_655   S
    Zr38   O44       2.18955  1_554   S
    N10    O44       4.39085      .   S
    Zr38   O45       2.18658      .   S
    N11    O45       4.39094      .   S
    Zr38   O46       2.16619      .   S
    N8     O46       4.36432      .   S
    Zr38   O47       2.72193      .   S
    N0     O47       5.99989  1_655   S
    Zr38   O48       2.72406      .   S
    N0     O48       6.00009      .   S
    Zr38   O49       2.16323      .   S
    N8     O49       4.36789      .   S
    Zr38   O50       2.18944  1_554   S
    N10    O50       4.38986      .   S
    Zr51   O52       2.72497      .   S
    N5     O52       6.00348      .   S
    Zr51   O53       2.16103      .   S
    N6     O53       4.36426      .   S
    Zr51   O54       2.18932      .   S
    N7     O54       4.39229  1_565   S
    Zr51   O55       2.16470      .   S
    N9     O55       4.36700  1_565   S
    Zr51   O56       2.72161      .   S
    N5     O56       5.99464  1_455   S
    Zr51   O57       2.19014      .   S
    N7     O57       4.39016  1_565   S
    Zr51   O58       2.71862      .   S
    N5     O58       5.99737  1_455   S
    Zr51   O59       2.16607      .   S
    N6     O59       4.36076      .   S
    Zr51   O60       2.18568      .   S
    N3     O60       4.38406      .   S
    Zr51   O61       2.18664      .   S
    N3     O61       4.38441      .   S
    Zr51   O62       2.16514      .   S
    N9     O62       4.36643  1_565   S
    Zr51   O63       2.72452      .   S
    N5     O63       6.00557      .   S
