# CIF file generated by openbabel 2.4.90, see http://openbabel.sf.net
data_I
_chemical_name_common ''
_cell_length_a 13.828
_cell_length_b 15.638
_cell_length_c 15.641
_cell_angle_alpha 90.018
_cell_angle_beta 90.001
_cell_angle_gamma 89.957
_space_group_name_H-M_alt 'P 1'
_space_group_name_Hall 'P 1'
loop_
    _symmetry_equiv_pos_as_xyz
    x,y,z
loop_
    _atom_site_label
    _atom_site_type_symbol
    _atom_site_fract_x
    _atom_site_fract_y
    _atom_site_fract_z
    _atom_site_occupancy
    Zn0     Zn   0.13852   0.50003   0.49989   1.000
    Zn1     Zn   0.86146   0.49999   0.50007   1.000
    Zn2     Zn   0.36156   0.99998   0.99990   1.000
    C3      C    0.49995   0.83710   0.16289   1.000
    C4      C    0.00005   0.66292   0.66289   1.000
    C5      C    0.99996   0.33709   0.33708   1.000
    Zn6     Zn   0.63840   0.00002   0.10000   1.000
    N7      N    0.54863   0.92779   0.07241   1.000
    N8      N    0.58101   0.87130   0.12900   1.000
    N9      N    0.04866   0.57237   0.57210   1.000
    N10     N    0.08109   0.62895   0.62861   1.000
    N11     N    0.04864   0.42780   0.42759   1.000
    N12     N    0.08103   0.37130   0.37097   1.000
    N13     N    0.95132   0.42765   0.42783   1.000
    N14     N    0.91889   0.37106   0.37136   1.000
    N15     N    0.95133   0.57221   0.57237   1.000
    N16     N    0.91895   0.62871   0.62899   1.000
    N17     N    0.45133   0.92764   0.07210   1.000
    N18     N    0.41890   0.87107   0.12863   1.000
loop_
    _geom_bond_atom_site_label_1
    _geom_bond_atom_site_label_2
    _geom_bond_distance
    _geom_bond_site_symmetry_2
    _ccdc_geom_bond_type
    N17    N7        1.34538      .   S
    N17    N18       1.32909      .   S
    N17    Zn2       2.02354  1_554   S
    N7     N8        1.32823      .   S
    N7     Zn6       1.73348  1_565   S
    N18    C3        1.35075      .   S
    N8     C3        1.35085      .   S
    C5     N12       1.35076  1_655   S
    C5     N14       1.35113      .   S
    N12    N11       1.32829      .   S
    N14    N13       1.32829      .   S
    N11    N13       1.34585  1_455   S
    N11    Zn0       2.02499      .   S
    N13    Zn1       2.02425      .   S
    Zn0    N9        2.02399      .   S
    Zn1    N15       2.02496      .   S
    N9     N15       1.34586  1_455   S
    N9     N10       1.32868      .   S
    N15    N16       1.32831      .   S
    N10    C4        1.35076      .   S
    N16    C4        1.35120  1_655   S
