# CIF file generated by openbabel 2.4.90, see http://openbabel.sf.net
data_I
_chemical_name_common ''
_cell_length_a 14.809
_cell_length_b 21.175
_cell_length_c 21.172
_cell_angle_alpha 83.049
_cell_angle_beta 69.624
_cell_angle_gamma 69.642
_space_group_name_H-M_alt 'P 1'
_space_group_name_Hall 'P 1'
loop_
    _symmetry_equiv_pos_as_xyz
    x,y,z
loop_
    _atom_site_label
    _atom_site_type_symbol
    _atom_site_fract_x
    _atom_site_fract_y
    _atom_site_fract_z
    _atom_site_occupancy
    Zr0     Zr   0.50841   0.94761   0.00453   1.000
    Zr1     Zr   0.96098   0.55239   0.49527   1.000
    Zr2     Zr   0.51296   0.99533   0.44761   1.000
    Zr3     Zr   0.45635   0.50457   0.05241   1.000
    Zr4     Zr   0.49158   0.05239   0.99540   1.000
    Zr5     Zr   0.03900   0.44761   0.50473   1.000
    Zr6     Zr   0.48703   0.00467   0.55239   1.000
    Zr7     Zr   0.54362   0.49544   0.94760   1.000
    Zr8     Zr   0.70411   0.96998   0.93056   1.000
    Zr9     Zr   0.53106   0.99586   0.11988   1.000
    Zr10    Zr   0.10490   0.53018   0.56949   1.000
    Zr11    Zr   0.14674   0.50381   0.38019   1.000
    Zr12    Zr   0.63500   0.06946   0.46980   1.000
    Zr13    Zr   0.65025   0.88011   0.49608   1.000
    Zr14    Zr   0.67432   0.43056   0.02982   1.000
    Zr15    Zr   0.52689   0.61993   0.00400   1.000
    Zr16    Zr   0.29587   0.03002   0.06945   1.000
    Zr17    Zr   0.46893   0.00414   0.88013   1.000
    Zr18    Zr   0.89509   0.46982   0.43051   1.000
    Zr19    Zr   0.85324   0.49619   0.61982   1.000
    Zr20    Zr   0.36499   0.93054   0.53015   1.000
    Zr21    Zr   0.34975   0.11989   0.50392   1.000
    Zr22    Zr   0.32565   0.56945   0.97019   1.000
    Zr23    Zr   0.47310   0.38008   0.99596   1.000
    Zr24    Zr   0.66684   0.92178   0.95065   1.000
    Zr25    Zr   0.53435   0.94138   0.09630   1.000
    Zr26    Zr   0.64746   0.03221   0.94169   1.000
    Zr27    Zr   0.51697   0.05183   0.08682   1.000
    Zr28    Zr   0.03984   0.57837   0.54923   1.000
    Zr29    Zr   0.07232   0.55836   0.40353   1.000
    Zr30    Zr   0.12112   0.46795   0.55849   1.000
    Zr31    Zr   0.15519   0.44795   0.41340   1.000
    Zr32    Zr   0.61782   0.04925   0.42160   1.000
    Zr33    Zr   0.63011   0.90356   0.44157   1.000
    Zr34    Zr   0.58939   0.05839   0.53211   1.000
    Zr35    Zr   0.60326   0.91329   0.55199   1.000
    Zr36    Zr   0.58913   0.45069   0.07808   1.000
    Zr37    Zr   0.47596   0.59640   0.05859   1.000
    Zr38    Zr   0.67949   0.44175   0.96764   1.000
    Zr39    Zr   0.56840   0.58685   0.94810   1.000
    Zr40    Zr   0.33315   0.07822   0.04935   1.000
    Zr41    Zr   0.46564   0.05862   0.90371   1.000
    Zr42    Zr   0.35252   0.96779   0.05832   1.000
    Zr43    Zr   0.48302   0.94817   0.91319   1.000
    Zr44    Zr   0.96014   0.42163   0.45078   1.000
    Zr45    Zr   0.92766   0.44164   0.59648   1.000
    Zr46    Zr   0.87886   0.53205   0.44152   1.000
    Zr47    Zr   0.84479   0.55205   0.58661   1.000
    Zr48    Zr   0.38217   0.95076   0.57833   1.000
    Zr49    Zr   0.36989   0.09644   0.55844   1.000
    Zr50    Zr   0.41061   0.94161   0.46790   1.000
    Zr51    Zr   0.39674   0.08671   0.44800   1.000
    Zr52    Zr   0.41084   0.54931   0.92193   1.000
    Zr53    Zr   0.52402   0.40361   0.94142   1.000
    Zr54    Zr   0.32049   0.55827   0.03237   1.000
    Zr55    Zr   0.43158   0.41316   0.05180   1.000
    O56     O    0.50142   0.60816   0.03129   1.000
    O57     O    0.54764   0.60339   0.97605   1.000
    O58     O    0.43046   0.95770   0.03142   1.000
    O59     O    0.52138   0.94449   0.05041   1.000
    O60     O    0.49571   0.94789   0.95886   1.000
    O61     O    0.58762   0.93469   0.97759   1.000
    O62     O    0.63173   0.44062   0.05395   1.000
    O63     O    0.67691   0.43615   0.99873   1.000
    O64     O    0.38842   0.53142   0.04239   1.000
    O65     O    0.32307   0.56386   0.00128   1.000
    O66     O    0.31451   0.05412   0.05940   1.000
    O67     O    0.41236   0.06531   0.02237   1.000
    O68     O    0.44397   0.45887   0.05210   1.000
    O69     O    0.45234   0.39662   0.02388   1.000
    O70     O    0.46616   0.55049   0.05550   1.000
    O71     O    0.52274   0.47763   0.06524   1.000
    O72     O    0.32420   0.99891   0.06388   1.000
    O73     O    0.52401   0.02385   0.10335   1.000
    O74     O    0.50427   0.05211   0.04111   1.000
    O75     O    0.53270   0.96862   0.10809   1.000
    O76     O    0.10953   0.53108   0.39186   1.000
    O77     O    0.15097   0.47588   0.39679   1.000
    O78     O    0.01665   0.55537   0.44940   1.000
    O79     O    0.09710   0.44778   0.45906   1.000
    O80     O    0.56539   0.02229   0.43460   1.000
    O81     O    0.62641   0.05935   0.44570   1.000
    O82     O    0.88698   0.50094   0.43601   1.000
    O83     O    0.92761   0.44573   0.44064   1.000
    O84     O    0.91992   0.54222   0.46839   1.000
    O85     O    0.57154   0.94944   0.44459   1.000
    O86     O    0.64018   0.89184   0.46882   1.000
    O87     O    0.45485   0.04102   0.44780   1.000
    O88     O    0.46178   0.96847   0.45775   1.000
    O89     O    0.37324   0.10330   0.47596   1.000
    O90     O    0.99957   0.43462   0.47775   1.000
    O91     O    0.38780   0.93607   0.49902   1.000
    O92     O    0.61219   0.06393   0.50095   1.000
    O93     O    0.00041   0.56538   0.52225   1.000
    O94     O    0.90289   0.55222   0.54094   1.000
    O95     O    0.62675   0.89670   0.52403   1.000
    O96     O    0.35982   0.10816   0.53118   1.000
    O97     O    0.08006   0.45778   0.53161   1.000
    O98     O    0.98333   0.44463   0.55060   1.000
    O99     O    0.37358   0.94065   0.55424   1.000
    O100    O    0.53821   0.03153   0.54225   1.000
    O101    O    0.07237   0.55427   0.55936   1.000
    O102    O    0.54515   0.95898   0.55219   1.000
    O103    O    0.42846   0.05056   0.55541   1.000
    O104    O    0.43460   0.97771   0.56536   1.000
    O105    O    0.11301   0.49906   0.56399   1.000
    O106    O    0.84902   0.52412   0.60321   1.000
    O107    O    0.89045   0.46892   0.60815   1.000
    O108    O    0.46728   0.03138   0.89192   1.000
    O109    O    0.47598   0.97615   0.89666   1.000
    O110    O    0.47861   0.05550   0.94955   1.000
    O111    O    0.47723   0.52238   0.93476   1.000
    O112    O    0.36825   0.55938   0.94606   1.000
    O113    O    0.67579   0.00109   0.93612   1.000
    O114    O    0.68547   0.94588   0.94060   1.000
    O115    O    0.53382   0.44952   0.94451   1.000
    O116    O    0.49856   0.39184   0.96869   1.000
    O117    O    0.56952   0.04230   0.96854   1.000
    O118    O    0.55601   0.54114   0.94785   1.000
    O119    O    0.61156   0.46860   0.95762   1.000
    O120    O    0.49999   0.00000   0.99996   1.000
    O121    O    0.99999   0.50000   0.50000   1.000
    O122    O    0.50000   0.00000   0.50000   1.000
    O123    O    0.49999   0.50001   0.00000   1.000
    N124    N    0.45840   0.24752   0.99314   1.000
    O125    O    0.46350   0.29709   0.99417   1.000
    O126    O    0.46551   0.18278   0.99345   1.000
    N127    N    0.76734   0.44996   0.34651   1.000
    O128    O    0.81619   0.45609   0.37940   1.000
    N129    N    0.93541   0.95002   0.84679   1.000
    O130    O    0.84766   0.95619   0.87959   1.000
    N131    N    0.88564   0.34674   0.04965   1.000
    O132    O    0.80410   0.37954   0.04352   1.000
    N133    N    0.78257   0.15340   0.44993   1.000
    O134    O    0.72760   0.12054   0.45608   1.000
    N135    N    0.21736   0.84657   0.55005   1.000
    O136    O    0.27236   0.87944   0.54390   1.000
    N137    N    0.23263   0.55005   0.65348   1.000
    O138    O    0.18379   0.54391   0.62060   1.000
    N139    N    0.06457   0.04982   0.15314   1.000
    O140    O    0.15233   0.04372   0.12038   1.000
    N141    N    0.11408   0.65327   0.95015   1.000
    O142    O    0.19575   0.62047   0.95639   1.000
    N143    N    0.20037   0.25244   0.50657   1.000
    O144    O    0.25580   0.20287   0.50561   1.000
    O145    O    0.14270   0.31719   0.50634   1.000
    N146    N    0.29385   0.50639   0.24770   1.000
    O147    O    0.35160   0.50617   0.18290   1.000
    O148    O    0.23924   0.50546   0.29725   1.000
    N149    N    0.54845   0.99304   0.25248   1.000
    O150    O    0.54102   0.99335   0.31723   1.000
    O151    O    0.54238   0.99406   0.20289   1.000
    N152    N    0.70613   0.49361   0.75230   1.000
    O153    O    0.64838   0.49384   0.81708   1.000
    O154    O    0.76074   0.49454   0.70275   1.000
    N155    N    0.45154   0.00696   0.74751   1.000
    O156    O    0.45761   0.00594   0.79711   1.000
    O157    O    0.45897   0.00665   0.68277   1.000
    N158    N    0.79963   0.74756   0.49343   1.000
    O159    O    0.85730   0.68281   0.49365   1.000
    O160    O    0.74420   0.79714   0.49438   1.000
    N161    N    0.54159   0.75248   0.00681   1.000
    O162    O    0.53650   0.70291   0.00565   1.000
    O163    O    0.53448   0.81723   0.00651   1.000
loop_
    _geom_bond_atom_site_label_1
    _geom_bond_atom_site_label_2
    _geom_bond_distance
    _geom_bond_site_symmetry_2
    _ccdc_geom_bond_type
    Zr15   O56       0.64574      .   S
    Zr37   O56       0.64574      .   S
    Zr15   O57       0.64492  1_554   S
    Zr39   O57       0.64492      .   S
    Zr0    O58       1.04992      .   S
    Zr42   O58       1.04992      .   S
    Zr0    O59       1.04436      .   S
    Zr25   O59       1.04436      .   S
    Zr0    O60       1.04628  1_554   S
    Zr43   O60       1.04628      .   S
    Zr0    O61       1.06061  1_554   S
    Zr24   O61       1.06061      .   S
    Zr14   O62       0.64245      .   S
    Zr36   O62       0.64245      .   S
    Zr14   O63       0.64462  1_554   S
    Zr38   O63       0.64462      .   S
    Zr54   O64       1.04965      .   S
    Zr3    O64       1.04965      .   S
    Zr54   O65       0.64461      .   S
    Zr22   O65       0.64461  1_556   S
    Zr40   O66       0.64241      .   S
    Zr16   O66       0.64241      .   S
    Zr40   O67       1.06076      .   S
    Zr4    O67       1.06076  1_556   S
    Zr55   O68       1.04699      .   S
    Zr3    O68       1.04699      .   S
    Zr55   O69       0.64441      .   S
    Zr23   O69       0.64441  1_556   S
    Zr3    O70       1.04442      .   S
    Zr37   O70       1.04442      .   S
    Zr3    O71       1.06027      .   S
    Zr36   O71       1.06027      .   S
    Zr42   O72       0.64498      .   S
    Zr16   O72       0.64498  1_545   S
    Zr27   O73       0.64554      .   S
    Zr9    O73       0.64554  1_565   S
    Zr27   O74       1.04712      .   S
    Zr4    O74       1.04712  1_556   S
    Zr25   O75       0.64531      .   S
    Zr9    O75       0.64531      .   S
    Zr11   O76       0.64541      .   S
    Zr29   O76       0.64541      .   S
    Zr11   O77       0.64536      .   S
    Zr31   O77       0.64536      .   S
    Zr29   O78       1.04435      .   S
    Zr1    O78       1.04435  1_655   S
    Zr31   O79       1.04739      .   S
    Zr5    O79       1.04739      .   S
    Zr32   O80       1.06111      .   S
    Zr2    O80       1.06111  1_565   S
    Zr32   O81       0.64259      .   S
    Zr12   O81       0.64259      .   S
    Zr18   O82       0.64487      .   S
    Zr46   O82       0.64487      .   S
    Zr18   O83       0.64254      .   S
    Zr44   O83       0.64254      .   S
    Zr46   O84       1.04950      .   S
    Zr1    O84       1.04950      .   S
    Zr33   O85       1.04431      .   S
    Zr2    O85       1.04431      .   S
    Zr33   O86       0.64524      .   S
    Zr13   O86       0.64524      .   S
    Zr2    O87       1.04682  1_565   S
    Zr51   O87       1.04682      .   S
    Zr2    O88       1.04930      .   S
    Zr50   O88       1.04930      .   S
    Zr51   O89       0.64555      .   S
    Zr21   O89       0.64555      .   S
    Zr44   O90       1.06056      .   S
    Zr5    O90       1.06056  1_455   S
    Zr50   O91       0.64491      .   S
    Zr20   O91       0.64491      .   S
    Zr12   O92       0.64543      .   S
    Zr34   O92       0.64543      .   S
    Zr1    O93       1.06062  1_655   S
    Zr28   O93       1.06062      .   S
    Zr1    O94       1.04745      .   S
    Zr47   O94       1.04745      .   S
    Zr13   O95       0.64547      .   S
    Zr35   O95       0.64547      .   S
    Zr21   O96       0.64534      .   S
    Zr49   O96       0.64534      .   S
    Zr5    O97       1.04958      .   S
    Zr30   O97       1.04958      .   S
    Zr5    O98       1.04442  1_455   S
    Zr45   O98       1.04442      .   S
    Zr20   O99       0.64239      .   S
    Zr48   O99       0.64239      .   S
    Zr34   O100      1.04931      .   S
    Zr6    O100      1.04931      .   S
    Zr28   O101      0.64251      .   S
    Zr10   O101      0.64251      .   S
    Zr35   O102      1.04680      .   S
    Zr6    O102      1.04680  1_545   S
    Zr6    O103      1.04431      .   S
    Zr49   O103      1.04431      .   S
    Zr6    O104      1.06116  1_545   S
    Zr48   O104      1.06116      .   S
    Zr30   O105      0.64487      .   S
    Zr10   O105      0.64487      .   S
    Zr47   O106      0.64535      .   S
    Zr19   O106      0.64535      .   S
    Zr45   O107      0.64540      .   S
    Zr19   O107      0.64540      .   S
    Zr17   O108      0.64532      .   S
    Zr41   O108      0.64532      .   S
    Zr17   O109      0.64553  1_545   S
    Zr43   O109      0.64553      .   S
    Zr41   O110      1.04352      .   S
    Zr4    O110      1.04352      .   S
    Zr52   O111      1.06027      .   S
    Zr7    O111      1.06027      .   S
    Zr52   O112      0.64245      .   S
    Zr22   O112      0.64245      .   S
    Zr8    O113      0.64497  1_565   S
    Zr26   O113      0.64497      .   S
    Zr8    O114      0.64239      .   S
    Zr24   O114      0.64239      .   S
    Zr53   O115      1.04441      .   S
    Zr7    O115      1.04441      .   S
    Zr53   O116      0.64540      .   S
    Zr23   O116      0.64540      .   S
    Zr26   O117      1.04975      .   S
    Zr4    O117      1.04975      .   S
    Zr7    O118      1.04679      .   S
    Zr39   O118      1.04679      .   S
    Zr7    O119      1.04964      .   S
    Zr38   O119      1.04964      .   S
    Zr0    O120      1.06862  1_564   S
    Zr4    O120      1.06860      .   S
    Zr1    O121      1.06858      .   S
    Zr5    O121      1.06858  1_455   S
    Zr2    O122      1.06866  1_565   S
    Zr6    O122      1.06865      .   S
    Zr3    O123      1.06826      .   S
    Zr7    O123      1.06826  1_556   S
    N124   O125      1.08162      .   S
    Zr23   O125      1.81746      .   S
    N124   O126      1.33736      .   S
    Zr4    O126      2.64859      .   S
    N127   O128      1.20939      .   S
    Zr18   O128      1.95296      .   S
    N129   O130      1.20973      .   S
    Zr8    O130      1.95336      .   S
    N131   O132      1.20886      .   S
    Zr14   O132      1.95250      .   S
    N133   O134      1.20907      .   S
    Zr12   O134      1.95282      .   S
    N135   O136      1.20978      .   S
    Zr20   O136      1.95343      .   S
    N137   O138      1.20935      .   S
    Zr10   O138      1.95298      .   S
    N139   O140      1.20995      .   S
    Zr16   O140      1.95352      .   S
    N141   O142      1.21129      .   S
    Zr22   O142      1.95503      .   S
    N143   O144      1.08174      .   S
    Zr21   O144      1.81762      .   S
    N143   O145      1.34014      .   S
    Zr5    O145      2.65502      .   S
    N146   O147      1.33987      .   S
    Zr3    O147      2.65371      .   S
    N146   O148      1.08186      .   S
    Zr11   O148      1.81777      .   S
    N149   O150      1.33719      .   S
    Zr2    O150      2.64791      .   S
    N149   O151      1.08156      .   S
    Zr9    O151      1.81740      .   S
    N152   O153      1.33962      .   S
    Zr7    O153      2.65425      .   S
    N152   O154      1.08175      .   S
    Zr19   O154      1.81766      .   S
    N155   O156      1.08173      .   S
    Zr17   O156      1.81757      .   S
    N155   O157      1.33706      .   S
    Zr6    O157      2.64788      .   S
    N158   O159      1.34012      .   S
    Zr1    O159      2.65503      .   S
    N158   O160      1.08173      .   S
    Zr13   O160      1.81762      .   S
    N161   O162      1.08206      .   S
    Zr15   O162      1.81695      .   S
    N161   O163      1.33735      .   S
    Zr0    O163      2.64848      .   S
