# CIF file generated by openbabel 2.4.90, see http://openbabel.sf.net
data_I
_chemical_name_common ''
_cell_length_a 18.538
_cell_length_b 16.297
_cell_length_c 16.338
_cell_angle_alpha 63.269
_cell_angle_beta 79.284
_cell_angle_gamma 100.929
_space_group_name_H-M_alt 'P 1'
_space_group_name_Hall 'P 1'
loop_
    _symmetry_equiv_pos_as_xyz
    x,y,z
loop_
    _atom_site_label
    _atom_site_type_symbol
    _atom_site_fract_x
    _atom_site_fract_y
    _atom_site_fract_z
    _atom_site_occupancy
    N0      N    0.54636   0.88246   0.54996   1.000
    N1      N    0.45366   0.11751   0.44999   1.000
    N2      N    0.67847   0.45076   0.43218   1.000
    N3      N    0.32156   0.54925   0.56776   1.000
    N4      N    0.82157   0.54925   0.56776   1.000
    N5      N    0.10517   0.56756   0.88192   1.000
    N6      N    0.89487   0.43243   0.11802   1.000
    N7      N    0.04637   0.88247   0.54996   1.000
    N8      N    0.60518   0.56757   0.88192   1.000
    N9      N    0.95365   0.11751   0.44998   1.000
    N10     N    0.39486   0.43244   0.11801   1.000
    N11     N    0.17846   0.45076   0.43219   1.000
    Zr12    Zr   0.50001   0.50001   0.49997   1.000
    O13     O    0.52913   0.51677   0.60995   1.000
    O14     O    0.47090   0.48324   0.38999   1.000
    Zr15    Zr   0.75001   0.99999   0.49997   1.000
    O16     O    0.72927   0.12709   0.48313   1.000
    O17     O    0.77075   0.87289   0.51681   1.000
    Zr18    Zr   0.75002   0.49999   0.99998   1.000
    O19     O    0.66584   0.38986   0.12688   1.000
    O20     O    0.83420   0.61012   0.87308   1.000
    Zr21    Zr   0.25001   0.49998   0.99998   1.000
    O22     O    0.16583   0.38985   0.12687   1.000
    O23     O    0.33419   0.61012   0.87308   1.000
    Zr24    Zr   0.25002   0.99999   0.49998   1.000
    O25     O    0.27076   0.87290   0.51682   1.000
    O26     O    0.22927   0.12710   0.48314   1.000
    Zr27    Zr   0.00000   0.50001   0.49997   1.000
    O28     O    0.97089   0.48324   0.38999   1.000
    O29     O    0.02912   0.51677   0.60995   1.000
    O30     O    0.94478   0.50881   0.52278   1.000
    O31     O    0.05523   0.49120   0.47716   1.000
    O32     O    0.80984   0.03178   0.49092   1.000
    O33     O    0.69018   0.96820   0.50902   1.000
    O34     O    0.44478   0.50881   0.52278   1.000
    O35     O    0.20611   0.52277   0.96798   1.000
    O36     O    0.29390   0.47721   0.03197   1.000
    O37     O    0.79391   0.47721   0.03197   1.000
    O38     O    0.30984   0.03178   0.49093   1.000
    O39     O    0.70613   0.52278   0.96798   1.000
    O40     O    0.55524   0.49120   0.47716   1.000
    O41     O    0.19019   0.96820   0.50903   1.000
loop_
    _geom_bond_atom_site_label_1
    _geom_bond_atom_site_label_2
    _geom_bond_distance
    _geom_bond_site_symmetry_2
    _ccdc_geom_bond_type
    Zr12   O13       2.08348      .   S
    N8     O13       5.25481      .   S
    Zr12   O14       2.08351      .   S
    N10    O14       5.25490      .   S
    Zr15   O16       2.08398  1_565   S
    N2     O16       5.25618      .   S
    Zr15   O17       2.08388      .   S
    N4     O17       5.25602      .   S
    Zr18   O19       2.08382  1_556   S
    N1     O19       5.25538      .   S
    Zr18   O20       2.08385      .   S
    N7     O20       5.25535  1_455   S
    Zr21   O22       2.08379  1_556   S
    N9     O22       5.25528  1_655   S
    Zr21   O23       2.08387      .   S
    N0     O23       5.25540      .   S
    Zr24   O25       2.08386      .   S
    N3     O25       5.25598      .   S
    Zr24   O26       2.08399  1_565   S
    N11    O26       5.25620      .   S
    Zr27   O28       2.08357  1_455   S
    N6     O28       5.25470      .   S
    Zr27   O29       2.08347      .   S
    N5     O29       5.25479      .   S
    Zr27   O30       1.08140  1_455   S
    N4     O30       2.56389      .   S
    Zr27   O31       1.08161      .   S
    N11    O31       2.56423      .   S
    Zr15   O32       1.08282  1_565   S
    N9     O32       2.56738      .   S
    Zr15   O33       1.08283      .   S
    N0     O33       2.56741      .   S
    N3     O34       2.56410      .   S
    Zr12   O34       1.08152      .   S
    N5     O35       2.56618      .   S
    Zr21   O35       1.08232      .   S
    Zr21   O36       1.08230  1_556   S
    N10    O36       2.56611      .   S
    N6     O37       2.56605      .   S
    Zr18   O37       1.08227  1_556   S
    N1     O38       2.56735      .   S
    Zr24   O38       1.08280  1_565   S
    Zr18   O39       1.08234      .   S
    N8     O39       2.56617      .   S
    N2     O40       2.56412      .   S
    Zr12   O40       1.08154      .   S
    Zr24   O41       1.08283      .   S
    N7     O41       2.56740      .   S
