# CIF file generated by openbabel 2.4.90, see http://openbabel.sf.net
data_I
_chemical_name_common ''
_cell_length_a 14.95
_cell_length_b 14.892
_cell_length_c 13.081
_cell_angle_alpha 90
_cell_angle_beta 90
_cell_angle_gamma 90
_space_group_name_H-M_alt 'P 1'
_space_group_name_Hall 'P 1'
loop_
    _symmetry_equiv_pos_as_xyz
    x,y,z
loop_
    _atom_site_label
    _atom_site_type_symbol
    _atom_site_fract_x
    _atom_site_fract_y
    _atom_site_fract_z
    _atom_site_occupancy
    N0      N    0.36589   0.99931   0.87028   1.000
    N1      N    0.36575   0.50083   0.87043   1.000
    N2      N    0.86578   0.99911   0.87048   1.000
    N3      N    0.86573   0.50106   0.87035   1.000
    N4      N    0.13440   0.99906   0.87059   1.000
    N5      N    0.63442   0.99878   0.87054   1.000
    N6      N    0.63436   0.50111   0.87067   1.000
    N7      N    0.13425   0.50097   0.87064   1.000
    N8      N    0.00097   0.36575   0.36993   1.000
    N9      N    0.00106   0.86592   0.37009   1.000
    N10     N    0.50102   0.36576   0.36988   1.000
    N11     N    0.49891   0.86583   0.37015   1.000
    N12     N    0.00111   0.13431   0.36990   1.000
    N13     N    0.00112   0.63427   0.37016   1.000
    N14     N    0.50113   0.13432   0.36993   1.000
    N15     N    0.49896   0.63419   0.37008   1.000
    N16     N    0.13435   0.99905   0.12920   1.000
    N17     N    0.13432   0.50095   0.12933   1.000
    N18     N    0.63437   0.99881   0.12949   1.000
    N19     N    0.63444   0.50113   0.12951   1.000
    N20     N    0.36585   0.99927   0.12947   1.000
    N21     N    0.36581   0.50080   0.12939   1.000
    N22     N    0.86573   0.99911   0.12967   1.000
    N23     N    0.86578   0.50108   0.12967   1.000
    N24     N    0.00093   0.36576   0.63000   1.000
    N25     N    0.00097   0.86593   0.62985   1.000
    N26     N    0.50110   0.36574   0.63009   1.000
    N27     N    0.49895   0.86581   0.62984   1.000
    N28     N    0.00100   0.13432   0.63008   1.000
    N29     N    0.00106   0.63428   0.62982   1.000
    N30     N    0.50122   0.13430   0.63002   1.000
    N31     N    0.49905   0.63417   0.62987   1.000
    Zr32    Zr   0.00005   0.50007   0.75071   1.000
    O33     O    0.00034   0.45322   0.70933   1.000
    O34     O    0.00039   0.54687   0.70926   1.000
    O35     O    0.95321   0.50040   0.79171   1.000
    O36     O    0.04683   0.50036   0.79184   1.000
    Zr37    Zr   0.50011   0.99998   0.75070   1.000
    O38     O    0.49972   0.95320   0.70926   1.000
    O39     O    0.50050   0.04683   0.70934   1.000
    O40     O    0.54694   0.99957   0.79178   1.000
    O41     O    0.45332   0.99978   0.79171   1.000
    Zr42    Zr   0.50007   0.50003   0.75079   1.000
    O43     O    0.49973   0.54681   0.70933   1.000
    O44     O    0.50042   0.45319   0.70942   1.000
    O45     O    0.45324   0.50028   0.79180   1.000
    O46     O    0.54689   0.50040   0.79189   1.000
    Zr47    Zr   0.00012   0.00002   0.24919   1.000
    O48     O    0.95326   0.99972   0.20823   1.000
    O49     O    0.00044   0.95326   0.29064   1.000
    O50     O    0.04691   0.99970   0.20804   1.000
    O51     O    0.00046   0.04686   0.29056   1.000
    Zr52    Zr   0.00011   0.50007   0.24928   1.000
    O53     O    0.04689   0.50035   0.20815   1.000
    O54     O    0.95326   0.50040   0.20829   1.000
    O55     O    0.00045   0.54686   0.29073   1.000
    O56     O    0.00039   0.45322   0.29063   1.000
    Zr57    Zr   0.50006   0.99998   0.24927   1.000
    O58     O    0.45326   0.99977   0.20821   1.000
    O59     O    0.54689   0.99958   0.20821   1.000
    O60     O    0.49967   0.95320   0.29072   1.000
    O61     O    0.50043   0.04684   0.29063   1.000
    Zr62    Zr   0.50005   0.50003   0.24900   1.000
    O63     O    0.45325   0.50027   0.20800   1.000
    O64     O    0.54691   0.50041   0.20804   1.000
    O65     O    0.49968   0.54681   0.29052   1.000
    O66     O    0.50038   0.45320   0.29043   1.000
    Zr67    Zr   0.25025   0.99824   0.99992   1.000
    O68     O    0.29007   0.99857   0.04464   1.000
    O69     O    0.21034   0.99850   0.04455   1.000
    O70     O    0.21035   0.99850   0.95527   1.000
    O71     O    0.29008   0.99858   0.95515   1.000
    Zr72    Zr   0.25010   0.50175   0.99995   1.000
    O73     O    0.21022   0.50150   0.04462   1.000
    O74     O    0.28996   0.50145   0.04463   1.000
    O75     O    0.21020   0.50151   0.95531   1.000
    O76     O    0.28993   0.50146   0.95524   1.000
    Zr77    Zr   0.75015   0.99816   0.70000   1.000
    Zr78    Zr   0.75021   0.50179   0.30000   1.000
    Zr79    Zr   0.00178   0.25003   0.49999   1.000
    O80     O    0.00151   0.28991   0.54486   1.000
    O81     O    0.00157   0.21015   0.45510   1.000
    O82     O    0.00153   0.21016   0.54488   1.000
    O83     O    0.00152   0.28990   0.45511   1.000
    Zr84    Zr   0.00182   0.75015   0.49999   1.000
    O85     O    0.00160   0.71023   0.45518   1.000
    O86     O    0.00158   0.79004   0.45516   1.000
    O87     O    0.00154   0.79004   0.54481   1.000
    O88     O    0.00157   0.71023   0.54480   1.000
    Zr89    Zr   0.50179   0.25006   0.49999   1.000
    O90     O    0.50154   0.28993   0.45510   1.000
    O91     O    0.50158   0.21018   0.45511   1.000
    O92     O    0.50161   0.21018   0.54486   1.000
    O93     O    0.50156   0.28993   0.54488   1.000
    Zr94    Zr   0.49822   0.74997   0.49999   1.000
    O95     O    0.49844   0.78988   0.45518   1.000
    O96     O    0.49846   0.71008   0.45516   1.000
    O97     O    0.49849   0.71007   0.54481   1.000
    O98     O    0.49845   0.78988   0.54480   1.000
    Zr99    Zr   0.00008   0.00002   0.75078   1.000
    O100    O    0.00037   0.95326   0.70931   1.000
    O101    O    0.00038   0.04686   0.70941   1.000
    O102    O    0.04690   0.99970   0.79186   1.000
    O103    O    0.95325   0.99972   0.79180   1.000
loop_
    _geom_bond_atom_site_label_1
    _geom_bond_atom_site_label_2
    _geom_bond_distance
    _geom_bond_site_symmetry_2
    _ccdc_geom_bond_type
    Zr32   O33       0.88301      .   S
    N24    O33       1.66541      .   S
    Zr32   O34       0.88302      .   S
    N29    O34       1.66563      .   S
    Zr32   O35       0.88207  1_455   S
    N3     O35       1.66396      .   S
    Zr32   O36       0.88237      .   S
    N7     O36       1.66457      .   S
    Zr37   O38       0.88278      .   S
    N27    O38       1.66521      .   S
    Zr37   O39       0.88292  1_565   S
    N30    O39       1.66537      .   S
    Zr37   O40       0.88257      .   S
    N5     O40       1.66485      .   S
    Zr37   O41       0.88161      .   S
    N0     O41       1.66280      .   S
    Zr42   O43       0.88281      .   S
    N31    O43       1.66524      .   S
    Zr42   O44       0.88282      .   S
    N26    O44       1.66519      .   S
    Zr42   O45       0.88209      .   S
    N1     O45       1.66403      .   S
    Zr42   O46       0.88261      .   S
    N6     O46       1.66495      .   S
    Zr47   O48       0.88201  1_445   S
    N22    O48       1.66385      .   S
    Zr47   O49       0.88257  1_545   S
    N9     O49       1.66484      .   S
    Zr47   O50       0.88265  1_545   S
    N16    O50       1.66505      .   S
    Zr47   O51       0.88292      .   S
    N12    O51       1.66536      .   S
    Zr52   O53       0.88246      .   S
    N17    O53       1.66470      .   S
    Zr52   O54       0.88196  1_455   S
    N23    O54       1.66377      .   S
    Zr52   O55       0.88300      .   S
    N13    O55       1.66558      .   S
    Zr52   O56       0.88282      .   S
    N8     O56       1.66520      .   S
    Zr57   O58       0.88204      .   S
    N20    O58       1.66393      .   S
    Zr57   O59       0.88243      .   S
    N18    O59       1.66463      .   S
    Zr57   O60       0.88279      .   S
    N11    O60       1.66523      .   S
    Zr57   O61       0.88292  1_565   S
    N14    O61       1.66539      .   S
    Zr62   O63       0.88157      .   S
    N21    O63       1.66317      .   S
    Zr62   O64       0.88190      .   S
    N19    O64       1.66372      .   S
    Zr62   O65       0.88339      .   S
    N15    O65       1.66621      .   S
    Zr62   O66       0.88330      .   S
    N10    O66       1.66608      .   S
    Zr67   O68       0.83460  1_556   S
    N20    O68       1.58585      .   S
    Zr67   O69       0.83489  1_556   S
    N16    O69       1.58634      .   S
    Zr67   O70       0.83489      .   S
    N4     O70       1.58634      .   S
    Zr67   O71       0.83523      .   S
    N0     O71       1.58644      .   S
    Zr72   O73       0.83478  1_556   S
    N17    O73       1.58616      .   S
    Zr72   O74       0.83469  1_556   S
    N21    O74       1.58601      .   S
    Zr72   O75       0.83478      .   S
    N7     O75       1.58616      .   S
    Zr72   O76       0.83467      .   S
    N1     O76       1.58597      .   S
    Zr79   O80       0.83495      .   S
    N24    O80       1.58635      .   S
    Zr79   O81       0.83509      .   S
    N12    O81       1.58671      .   S
    Zr79   O82       0.83508      .   S
    N28    O82       1.58670      .   S
    Zr79   O83       0.83502      .   S
    N8     O83       1.58660      .   S
    Zr84   O85       0.83487      .   S
    N13    O85       1.58633      .   S
    Zr84   O86       0.83470      .   S
    N9     O86       1.58604      .   S
    Zr84   O87       0.83461      .   S
    N25    O87       1.58579      .   S
    Zr84   O88       0.83486      .   S
    N29    O88       1.58632      .   S
    Zr89   O90       0.83507      .   S
    N10    O90       1.58675      .   S
    Zr89   O91       0.83512      .   S
    N14    O91       1.58676      .   S
    Zr89   O92       0.83508      .   S
    N30    O92       1.58670      .   S
    Zr89   O93       0.83503      .   S
    N26    O93       1.58661      .   S
    Zr94   O95       0.83483      .   S
    N11    O95       1.58626      .   S
    Zr94   O96       0.83475      .   S
    N15    O96       1.58612      .   S
    Zr94   O97       0.83474      .   S
    N31    O97       1.58612      .   S
    Zr94   O98       0.83481      .   S
    N27    O98       1.58623      .   S
    Zr99   O100      0.88269  1_545   S
    N25    O100      1.66496      .   S
    Zr99   O101      0.88288      .   S
    N28    O101      1.66532      .   S
    Zr99   O102      0.88252  1_545   S
    N4     O102      1.66482      .   S
    Zr99   O103      0.88215  1_445   S
    N2     O103      1.66411      .   S
