# CIF file generated by openbabel 2.4.90, see http://openbabel.sf.net
data_I
_chemical_name_common ''
_cell_length_a 13.463
_cell_length_b 13.224
_cell_length_c 13.238
_cell_angle_alpha 91.965
_cell_angle_beta 98.987
_cell_angle_gamma 81.006
_space_group_name_H-M_alt 'P 1'
_space_group_name_Hall 'P 1'
loop_
    _symmetry_equiv_pos_as_xyz
    x,y,z
loop_
    _atom_site_label
    _atom_site_type_symbol
    _atom_site_fract_x
    _atom_site_fract_y
    _atom_site_fract_z
    _atom_site_occupancy
    Zr0     Zr   0.01290   0.36507   0.71216   1.000
    Zr1     Zr   0.17877   0.24447   0.60419   1.000
    Zr2     Zr   0.51292   0.28743   0.63492   1.000
    Zr3     Zr   0.67877   0.39573   0.75547   1.000
    N4      N    0.63055   0.87618   0.18286   1.000
    O5      O    0.40258   0.07376   0.42923   1.000
    O6      O    0.86112   0.10391   0.95622   1.000
    O7      O    0.69040   0.64009   0.97466   1.000
    O8      O    0.81078   0.64707   0.97297   1.000
    O9      O    0.57420   0.10885   0.38334   1.000
    O10     O    0.64246   0.65824   0.93937   1.000
    O11     O    0.87866   0.03827   0.38365   1.000
    O12     O    0.80506   0.09466   0.42613   1.000
    N13     N    0.13061   0.81697   0.12200   1.000
    O14     O    0.90254   0.57059   0.92532   1.000
    O15     O    0.36108   0.04352   0.89518   1.000
    O16     O    0.19043   0.02523   0.35895   1.000
    O17     O    0.31081   0.02678   0.35201   1.000
    O18     O    0.07420   0.61661   0.89009   1.000
    O19     O    0.14247   0.06053   0.34082   1.000
    O20     O    0.37869   0.61621   0.96077   1.000
    O21     O    0.30511   0.57364   0.90440   1.000
loop_
    _geom_bond_atom_site_label_1
    _geom_bond_atom_site_label_2
    _geom_bond_distance
    _geom_bond_site_symmetry_2
    _ccdc_geom_bond_type
    N4     O5        5.18831  1_565   S
    Zr1    O5        4.38585      .   S
    N4     O6        5.84445  1_564   S
    Zr0    O6        5.61925  1_455   S
    N4     O7        4.16059  1_554   S
    Zr3    O7        4.27305      .   S
    N4     O8        4.69230  1_554   S
    Zr0    O8        5.66666  1_455   S
    N4     O9        4.05277  1_565   S
    Zr2    O9        4.13033      .   S
    N4     O10       4.25458  1_554   S
    Zr3    O10       4.18069      .   S
    N4     O11       4.67888  1_565   S
    Zr1    O11       5.61222  1_455   S
    N4     O12       4.83314  1_565   S
    Zr0    O12       5.81751  1_455   S
    N13    O14       5.18367  1_454   S
    Zr3    O14       4.38000      .   S
    N13    O15       5.83551  1_564   S
    Zr2    O15       5.61048      .   S
    N13    O16       4.16941  1_565   S
    Zr1    O16       4.28275      .   S
    N13    O17       4.69813  1_565   S
    Zr2    O17       5.67229      .   S
    N13    O18       4.04534  1_554   S
    Zr0    O18       4.12401      .   S
    N13    O19       4.26225  1_565   S
    Zr1    O19       4.19156      .   S
    N13    O20       4.67171  1_554   S
    Zr3    O20       5.60468      .   S
    N13    O21       4.82561  1_554   S
    Zr2    O21       5.81032      .   S
