# CIF file generated by openbabel 2.4.90, see http://openbabel.sf.net
data_I
_chemical_name_common ''
_cell_length_a 19.791
_cell_length_b 19.792
_cell_length_c 21.892
_cell_angle_alpha 89.997
_cell_angle_beta 90.002
_cell_angle_gamma 119.953
_space_group_name_H-M_alt 'P 1'
_space_group_name_Hall 'P 1'
loop_
    _symmetry_equiv_pos_as_xyz
    x,y,z
loop_
    _atom_site_label
    _atom_site_type_symbol
    _atom_site_fract_x
    _atom_site_fract_y
    _atom_site_fract_z
    _atom_site_occupancy
    Cd0     Cd   0.45469   0.54545   0.75003   1.000
    Cd1     Cd   0.95469   0.04546   0.75003   1.000
    Cd2     Cd   0.95469   0.54545   0.75003   1.000
    Cd3     Cd   0.09113   0.04564   0.41671   1.000
    Cd4     Cd   0.09113   0.54563   0.41671   1.000
    Cd5     Cd   0.59113   0.04564   0.41671   1.000
    Cd6     Cd   0.59113   0.54563   0.41671   1.000
    Cd7     Cd   0.45433   0.40890   0.08331   1.000
    Cd8     Cd   0.45433   0.90888   0.08331   1.000
    Cd9     Cd   0.95433   0.40889   0.08331   1.000
    Cd10    Cd   0.95433   0.90888   0.08331   1.000
    Cd11    Cd   0.04545   0.45468   0.24990   1.000
    Cd12    Cd   0.04545   0.95467   0.24990   1.000
    Cd13    Cd   0.54545   0.45468   0.24997   1.000
    Cd14    Cd   0.54545   0.95467   0.24997   1.000
    Cd15    Cd   0.40892   0.45432   0.91670   1.000
    Cd16    Cd   0.40892   0.95431   0.91670   1.000
    Cd17    Cd   0.90892   0.45432   0.91670   1.000
    Cd18    Cd   0.90892   0.95431   0.91670   1.000
    Cd19    Cd   0.04564   0.09116   0.58330   1.000
    Cd20    Cd   0.04564   0.59116   0.58330   1.000
    Cd21    Cd   0.54564   0.09116   0.58330   1.000
    Cd22    Cd   0.54564   0.59115   0.58330   1.000
    Cd23    Cd   0.45469   0.04546   0.75003   1.000
