# CIF file generated by openbabel 2.4.90, see http://openbabel.sf.net
data_I
_chemical_name_common ''
_cell_length_a 12.513
_cell_length_b 14.768
_cell_length_c 14.758
_cell_angle_alpha 120.039
_cell_angle_beta 90.035
_cell_angle_gamma 90.047
_space_group_name_H-M_alt 'P 1'
_space_group_name_Hall 'P 1'
loop_
    _symmetry_equiv_pos_as_xyz
    x,y,z
loop_
    _atom_site_label
    _atom_site_type_symbol
    _atom_site_fract_x
    _atom_site_fract_y
    _atom_site_fract_z
    _atom_site_occupancy
    Lv0     Lv   0.16648   0.74614   0.49156   1.000
    Lv1     Lv   0.49991   0.25152   0.74843   1.000
    Lv2     Lv   0.16707   0.25426   0.50866   1.000
    Lv3     Lv   0.83277   0.49141   0.74562   1.000
    Lv4     Lv   0.49996   0.74798   0.25180   1.000
    Lv5     Lv   0.83280   0.50862   0.25386   1.000
