# CIF file generated by openbabel 2.4.90, see http://openbabel.sf.net
data_I
_chemical_name_common ''
_cell_length_a 15.026
_cell_length_b 14.001
_cell_length_c 14.741
_cell_angle_alpha 62.372
_cell_angle_beta 59.451
_cell_angle_gamma 57.636
_space_group_name_H-M_alt 'P 1'
_space_group_name_Hall 'P 1'
loop_
    _symmetry_equiv_pos_as_xyz
    x,y,z
loop_
    _atom_site_label
    _atom_site_type_symbol
    _atom_site_fract_x
    _atom_site_fract_y
    _atom_site_fract_z
    _atom_site_occupancy
    C0      C    0.95020   0.02653   0.63534   1.000
    C1      C    0.61243   0.47387   0.86438   1.000
    C2      C    0.04985   0.97351   0.36450   1.000
    C3      C    0.38761   0.52616   0.13548   1.000
    C4      C    0.70529   0.25026   0.74979   1.000
    C5      C    0.29475   0.74978   0.25006   1.000
    C6      C    0.65685   0.27729   0.27090   1.000
    C7      C    0.79904   0.14854   0.36287   1.000
    C8      C    0.80972   0.12953   0.98600   1.000
    C9      C    0.69792   0.43043   0.48607   1.000
    C10     C    0.55916   0.56024   0.38858   1.000
    C11     C    0.15523   0.91286   0.84659   1.000
    C12     C    0.20543   0.22300   0.22737   1.000
    C13     C    0.31044   0.35218   0.13504   1.000
    C14     C    0.92592   0.36968   0.51401   1.000
    C15     C    0.61433   0.06961   0.00000   1.000
    C16     C    0.50816   0.93942   0.11189   1.000
    C17     C    0.91432   0.58848   0.65260   1.000
    C18     C    0.34320   0.72274   0.72890   1.000
    C19     C    0.20102   0.85150   0.63697   1.000
    C20     C    0.19030   0.87047   0.01369   1.000
    C21     C    0.30214   0.56962   0.51377   1.000
    C22     C    0.44088   0.43980   0.61120   1.000
    C23     C    0.84478   0.08714   0.15329   1.000
    C24     C    0.79462   0.77704   0.77247   1.000
    C25     C    0.68961   0.64785   0.86481   1.000
    C26     C    0.07413   0.63033   0.48586   1.000
    C27     C    0.38572   0.93043   0.98572   1.000
    C28     C    0.49189   0.06062   0.88793   1.000
    C29     C    0.08573   0.41154   0.34726   1.000
    C30     C    0.83456   0.20220   0.49304   1.000
    C31     C    0.75685   0.28144   0.43092   1.000
    C32     C    0.66767   0.31003   0.31720   1.000
    C33     C    0.95794   0.04669   0.80952   1.000
    C34     C    0.98061   0.02399   0.90679   1.000
    C35     C    0.74657   0.23837   0.36898   1.000
    C36     C    0.51083   0.50079   0.27250   1.000
    C37     C    0.59934   0.42582   0.32505   1.000
    C38     C    0.89262   0.07323   0.99310   1.000
    C39     C    0.68956   0.39789   0.43769   1.000
    C40     C    0.61213   0.46991   0.38401   1.000
    C41     C    0.08801   0.95062   0.91414   1.000
    C42     C    0.52968   0.29828   0.00619   1.000
    C43     C    0.46917   0.21895   0.06800   1.000
    C44     C    0.29516   0.19021   0.18148   1.000
    C45     C    0.81417   0.45380   0.69008   1.000
    C46     C    0.91140   0.47631   0.59294   1.000
    C47     C    0.35396   0.26211   0.12950   1.000
    C48     C    0.28463   0.99878   0.22738   1.000
    C49     C    0.35051   0.07410   0.17445   1.000
    C50     C    0.95930   0.42632   0.50693   1.000
    C51     C    0.52513   0.10223   0.06210   1.000
    C52     C    0.46621   0.03000   0.11590   1.000
    C53     C    0.95262   0.55010   0.58536   1.000
    C54     C    0.16551   0.79784   0.50600   1.000
    C55     C    0.24320   0.71860   0.56892   1.000
    C56     C    0.33238   0.69000   0.68262   1.000
    C57     C    0.04209   0.95332   0.19035   1.000
    C58     C    0.01941   0.97601   0.09309   1.000
    C59     C    0.25349   0.76167   0.63087   1.000
    C60     C    0.48920   0.49924   0.72737   1.000
    C61     C    0.40071   0.57421   0.67481   1.000
    C62     C    0.10739   0.92677   0.00674   1.000
    C63     C    0.31050   0.60215   0.56216   1.000
    C64     C    0.38792   0.53012   0.61584   1.000
    C65     C    0.91201   0.04938   0.08574   1.000
    C66     C    0.47037   0.70175   0.99366   1.000
    C67     C    0.53088   0.78109   0.93165   1.000
    C68     C    0.70489   0.80983   0.81836   1.000
    C69     C    0.18588   0.54622   0.30978   1.000
    C70     C    0.08865   0.52371   0.40693   1.000
    C71     C    0.64609   0.73793   0.87032   1.000
    C72     C    0.71542   0.00126   0.77244   1.000
    C73     C    0.64954   0.92594   0.82538   1.000
    C74     C    0.04075   0.57369   0.49294   1.000
    C75     C    0.47492   0.89781   0.93773   1.000
    C76     C    0.53384   0.97005   0.88390   1.000
    C77     C    0.04744   0.44991   0.41450   1.000
    C78     C    0.90768   0.10143   0.47513   1.000
    C79     C    0.82827   0.23035   0.56700   1.000
    C80     C    0.50295   0.45121   0.22437   1.000
    C81     C    0.85884   0.10904   0.80725   1.000
    C82     C    0.45239   0.60543   0.28133   1.000
    C83     C    0.03970   0.99751   0.73306   1.000
    C84     C    0.48394   0.39929   0.02380   1.000
    C85     C    0.62656   0.26990   0.93190   1.000
    C86     C    0.17935   0.04810   0.27589   1.000
    C87     C    0.77514   0.39136   0.69228   1.000
    C88     C    0.33957   0.89413   0.21855   1.000
    C89     C    0.77050   0.50295   0.76658   1.000
    C90     C    0.09237   0.89861   0.52472   1.000
    C91     C    0.17178   0.76969   0.43195   1.000
    C92     C    0.49708   0.54881   0.77550   1.000
    C93     C    0.14119   0.89097   0.19262   1.000
    C94     C    0.54763   0.39459   0.71855   1.000
    C95     C    0.96033   0.00251   0.26681   1.000
    C96     C    0.51612   0.60074   0.97605   1.000
    C97     C    0.37350   0.73013   0.06795   1.000
    C98     C    0.82070   0.95194   0.72393   1.000
    C99     C    0.22489   0.60868   0.30757   1.000
    C100    C    0.66048   0.10591   0.78128   1.000
    C101    C    0.22955   0.49707   0.23329   1.000
    O102    O    0.56973   0.08592   0.03105   1.000
    O103    O    0.50681   0.34878   0.01500   1.000
    O104    O    0.49943   0.25861   0.03710   1.000
    O105    O    0.57812   0.28409   0.96905   1.000
    O106    O    0.14884   0.89862   0.01022   1.000
    O107    O    0.06340   0.95139   0.04992   1.000
    O108    O    0.09770   0.93870   0.96044   1.000
    O109    O    0.43578   0.46273   0.07964   1.000
    O110    O    0.49715   0.16059   0.06505   1.000
    O111    O    0.49567   0.06611   0.08900   1.000
    O112    O    0.33412   0.73995   0.15901   1.000
    O113    O    0.42193   0.71594   0.03081   1.000
    O114    O    0.41157   0.24053   0.09875   1.000
    O115    O    0.96571   0.01269   0.08942   1.000
    O116    O    0.87839   0.06826   0.11952   1.000
    O117    O    0.90232   0.06130   0.03942   1.000
    O118    O    0.03075   0.96466   0.14172   1.000
    O119    O    0.48718   0.98471   0.11390   1.000
    O120    O    0.40836   0.05205   0.14518   1.000
    O121    O    0.33220   0.30714   0.13227   1.000
    O122    O    0.32456   0.22616   0.15549   1.000
    O123    O    0.44528   0.48869   0.17993   1.000
    O124    O    0.30858   0.51162   0.18439   1.000
    O125    O    0.32284   0.13216   0.17797   1.000
    O126    O    0.31757   0.03644   0.20092   1.000
    O127    O    0.25030   0.20660   0.20443   1.000
    O128    O    0.09164   0.92215   0.19149   1.000
    O129    O    0.00121   0.97792   0.22858   1.000
    O130    O    0.21797   0.82038   0.22134   1.000
    O131    O    0.31210   0.94645   0.22297   1.000
    O132    O    0.31716   0.82195   0.23431   1.000
    O133    O    0.50689   0.47600   0.24844   1.000
    O134    O    0.23199   0.02344   0.25164   1.000
    O135    O    0.20772   0.52165   0.27154   1.000
    O136    O    0.37357   0.67761   0.26570   1.000
    O137    O    0.25982   0.67923   0.27882   1.000
    O138    O    0.23327   0.75973   0.34101   1.000
    O139    O    0.00509   0.98801   0.31566   1.000
    O140    O    0.66226   0.29366   0.29405   1.000
    O141    O    0.48161   0.55311   0.27692   1.000
    O142    O    0.55508   0.46330   0.29878   1.000
    O143    O    0.11460   0.01080   0.32020   1.000
    O144    O    0.20538   0.57745   0.30868   1.000
    O145    O    0.13726   0.53497   0.35836   1.000
    O146    O    0.63350   0.36792   0.32113   1.000
    O147    O    0.70712   0.27420   0.34309   1.000
    O148    O    0.60573   0.44786   0.35453   1.000
    O149    O    0.06658   0.43072   0.38088   1.000
    O150    O    0.77280   0.19346   0.36593   1.000
    O151    O    0.97876   0.03747   0.41982   1.000
    O152    O    0.75171   0.25991   0.39995   1.000
    O153    O    0.58565   0.51507   0.38630   1.000
    O154    O    0.65084   0.43390   0.41085   1.000
    O155    O    0.06804   0.48681   0.41072   1.000
    O156    O    0.06470   0.54870   0.44994   1.000
    O157    O    0.00337   0.43812   0.46072   1.000
    O158    O    0.72320   0.33966   0.43431   1.000
    O159    O    0.79571   0.24182   0.46198   1.000
    O160    O    0.16864   0.78376   0.46898   1.000
    O161    O    0.69374   0.41416   0.46188   1.000
    O162    O    0.87112   0.15182   0.48409   1.000
    O163    O    0.05744   0.60201   0.48940   1.000
    O164    O    0.99668   0.56189   0.53915   1.000
    O165    O    0.83141   0.21628   0.53002   1.000
    O166    O    0.12894   0.84823   0.51536   1.000
    O167    O    0.20435   0.75822   0.53746   1.000
    O168    O    0.94261   0.39800   0.51047   1.000
    O169    O    0.93535   0.45132   0.54994   1.000
    O170    O    0.30632   0.58588   0.53797   1.000
    O171    O    0.02129   0.96257   0.58003   1.000
    O172    O    0.27685   0.66037   0.56554   1.000
    O173    O    0.34921   0.56614   0.58900   1.000
    O174    O    0.76678   0.24030   0.65840   1.000
    O175    O    0.24835   0.74013   0.59990   1.000
    O176    O    0.93201   0.51321   0.58915   1.000
    O177    O    0.93347   0.56929   0.61898   1.000
    O178    O    0.86279   0.46505   0.64151   1.000
    O179    O    0.41440   0.48496   0.61352   1.000
    O180    O    0.39431   0.55217   0.64533   1.000
    O181    O    0.22725   0.80658   0.63392   1.000
    O182    O    0.29294   0.72583   0.65675   1.000
    O183    O    0.88545   0.98924   0.67964   1.000
    O184    O    0.99495   0.01202   0.68420   1.000
    O185    O    0.36654   0.63211   0.67872   1.000
    O186    O    0.44495   0.53673   0.70109   1.000
    O187    O    0.33779   0.70637   0.70576   1.000
    O188    O    0.79466   0.42258   0.69118   1.000
    O189    O    0.79234   0.47837   0.72833   1.000
    O190    O    0.74022   0.32081   0.72104   1.000
    O191    O    0.51842   0.44691   0.72296   1.000
    O192    O    0.62646   0.32242   0.73417   1.000
    O193    O    0.76806   0.97660   0.74819   1.000
    O194    O    0.49314   0.52403   0.75144   1.000
    O195    O    0.99882   0.02210   0.77129   1.000
    O196    O    0.68289   0.17809   0.76554   1.000
    O197    O    0.78207   0.17965   0.77852   1.000
    O198    O    0.66592   0.26008   0.84085   1.000
    O199    O    0.69147   0.48841   0.81548   1.000
    O200    O    0.68795   0.05359   0.77686   1.000
    O201    O    0.68248   0.96360   0.79891   1.000
    O202    O    0.74975   0.79343   0.79542   1.000
    O203    O    0.55476   0.51134   0.81994   1.000
    O204    O    0.90839   0.07787   0.80839   1.000
    O205    O    0.96928   0.03534   0.85816   1.000
    O206    O    0.67721   0.86788   0.82187   1.000
    O207    O    0.67549   0.77388   0.84434   1.000
    O208    O    0.59169   0.94799   0.85464   1.000
    O209    O    0.12162   0.93174   0.88037   1.000
    O210    O    0.56428   0.53730   0.92022   1.000
    O211    O    0.66785   0.69289   0.86757   1.000
    O212    O    0.58848   0.75951   0.90099   1.000
    O213    O    0.51286   0.01533   0.88592   1.000
    O214    O    0.50438   0.93393   0.91082   1.000
    O215    O    0.03431   0.98731   0.91047   1.000
    O216    O    0.93662   0.04861   0.94995   1.000
    O217    O    0.50290   0.83945   0.93469   1.000
    O218    O    0.50063   0.74142   0.96266   1.000
    O219    O    0.43032   0.91412   0.96173   1.000
    O220    O    0.49325   0.65125   0.98486   1.000
    O221    O    0.85117   0.10138   0.98955   1.000
    O222    O    0.92894   0.06398   0.55524   1.000
    O223    O    0.88924   0.12844   0.60117   1.000
    O224    O    0.54819   0.43658   0.94409   1.000
    O225    O    0.61950   0.37188   0.89814   1.000
    O226    O    0.07111   0.93606   0.44461   1.000
    O227    O    0.11082   0.87160   0.39823   1.000
    O228    O    0.45187   0.56345   0.05577   1.000
    O229    O    0.38055   0.62815   0.10172   1.000
loop_
    _geom_bond_atom_site_label_1
    _geom_bond_atom_site_label_2
    _geom_bond_distance
    _geom_bond_site_symmetry_2
    _ccdc_geom_bond_type
    C15    O102      0.57621      .   S
    C51    O102      0.57621      .   S
    C42    O103      0.64386      .   S
    C84    O103      0.64386      .   S
    C42    O104      0.74013      .   S
    C43    O104      0.74013      .   S
    C42    O105      0.64030  1_554   S
    C85    O105      0.64030      .   S
    C62    O106      0.54480      .   S
    C20    O106      0.54480      .   S
    C62    O107      0.70192      .   S
    C58    O107      0.70192      .   S
    C62    O108      0.69585  1_554   S
    C41    O108      0.69585      .   S
    C84    O109      1.17240      .   S
    C3     O109      1.17240      .   S
    C51    O110      0.70206      .   S
    C43    O110      0.70206      .   S
    C51    O111      0.69578      .   S
    C52    O111      0.69578      .   S
    C97    O112      1.20310      .   S
    C5     O112      1.20310      .   S
    C97    O113      0.64029      .   S
    C66    O113      0.64029  1_556   S
    C43    O114      0.70295      .   S
    C47    O114      0.70295      .   S
    C65    O115      0.70196      .   S
    C58    O115      0.70196  1_465   S
    C65    O116      0.54439      .   S
    C23    O116      0.54439      .   S
    C65    O117      0.69613      .   S
    C38    O117      0.69613  1_556   S
    C58    O118      0.74684      .   S
    C57    O118      0.74684      .   S
    C16    O119      0.54426      .   S
    C52    O119      0.54426  1_545   S
    C52    O120      0.70148      .   S
    C49    O120      0.70148      .   S
    C47    O121      0.54382      .   S
    C13    O121      0.54382      .   S
    C47    O122      0.69456      .   S
    C44    O122      0.69456      .   S
    C3     O123      1.10768      .   S
    C80    O123      1.10768      .   S
    C3     O124      1.10629      .   S
    C101   O124      1.10629      .   S
    C49    O125      0.70113      .   S
    C44    O125      0.70113      .   S
    C49    O126      0.75336      .   S
    C48    O126      0.75336  1_565   S
    C44    O127      0.54417      .   S
    C12    O127      0.54417      .   S
    C57    O128      0.63489      .   S
    C93    O128      0.63489      .   S
    C57    O129      0.64430      .   S
    C95    O129      0.64430  1_645   S
    C93    O130      1.17255      .   S
    C5     O130      1.17255      .   S
    C88    O131      0.63602      .   S
    C48    O131      0.63602      .   S
    C88    O132      1.12051      .   S
    C5     O132      1.12051      .   S
    C80    O133      0.63822      .   S
    C36    O133      0.63822      .   S
    C48    O134      0.63820  1_565   S
    C86    O134      0.63820      .   S
    C101   O135      0.64415      .   S
    C69    O135      0.64415      .   S
    C5     O136      1.12122      .   S
    C82    O136      1.12122      .   S
    C5     O137      1.17107      .   S
    C99    O137      1.17107      .   S
    C5     O138      1.20275      .   S
    C91    O138      1.20275      .   S
    C95    O139      1.10565  1_645   S
    C2     O139      1.10565      .   S
    C6     O140      0.54432      .   S
    C32    O140      0.54432      .   S
    C36    O141      0.63601      .   S
    C82    O141      0.63601      .   S
    C36    O142      0.75319      .   S
    C37    O142      0.75319      .   S
    C86    O143      1.10796      .   S
    C2     O143      1.10796  1_565   S
    C99    O144      0.63489      .   S
    C69    O144      0.63489      .   S
    C69    O145      0.74702      .   S
    C70    O145      0.74702      .   S
    C32    O146      0.70121      .   S
    C37    O146      0.70121      .   S
    C32    O147      0.69478      .   S
    C35    O147      0.69478      .   S
    C37    O148      0.70144      .   S
    C40    O148      0.70144      .   S
    C29    O149      0.54440      .   S
    C77    O149      0.54440      .   S
    C7     O150      0.54380      .   S
    C35    O150      0.54380      .   S
    C2     O151      1.17283  1_465   S
    C78    O151      1.17283      .   S
    C35    O152      0.70268      .   S
    C31    O152      0.70268      .   S
    C40    O153      0.54412      .   S
    C10    O153      0.54412      .   S
    C40    O154      0.69576      .   S
    C39    O154      0.69576      .   S
    C70    O155      0.70198      .   S
    C77    O155      0.70198      .   S
    C70    O156      0.70202      .   S
    C74    O156      0.70202      .   S
    C77    O157      0.69569      .   S
    C50    O157      0.69569  1_655   S
    C31    O158      0.70249      .   S
    C39    O158      0.70249      .   S
    C31    O159      0.74001      .   S
    C30    O159      0.74001      .   S
    C91    O160      0.63451      .   S
    C54    O160      0.63451      .   S
    C39    O161      0.54443      .   S
    C9     O161      0.54443      .   S
    C78    O162      0.64394      .   S
    C30    O162      0.64394      .   S
    C26    O163      0.54479      .   S
    C74    O163      0.54479      .   S
    C74    O164      0.69566  1_455   S
    C53    O164      0.69566      .   S
    C30    O165      0.63380      .   S
    C79    O165      0.63380      .   S
    C54    O166      0.64561      .   S
    C90    O166      0.64561      .   S
    C54    O167      0.74395      .   S
    C55    O167      0.74395      .   S
    C50    O168      0.54479      .   S
    C14    O168      0.54479      .   S
    C50    O169      0.70203      .   S
    C46    O169      0.70203      .   S
    C21    O170      0.54444      .   S
    C63    O170      0.54444      .   S
    C90    O171      1.17278      .   S
    C0     O171      1.17278  1_645   S
    C63    O172      0.70248      .   S
    C55    O172      0.70248      .   S
    C63    O173      0.69573      .   S
    C64    O173      0.69573      .   S
    C79    O174      1.20792      .   S
    C4     O174      1.20792      .   S
    C55    O175      0.70273      .   S
    C59    O175      0.70273      .   S
    C53    O176      0.70194      .   S
    C46    O176      0.70194      .   S
    C53    O177      0.54439      .   S
    C17    O177      0.54439      .   S
    C46    O178      0.74700      .   S
    C45    O178      0.74700      .   S
    C22    O179      0.54424      .   S
    C64    O179      0.54424      .   S
    C64    O180      0.70146      .   S
    C61    O180      0.70146      .   S
    C59    O181      0.54378      .   S
    C19    O181      0.54378      .   S
    C59    O182      0.69460      .   S
    C56    O182      0.69460      .   S
    C0     O183      1.10797  1_545   S
    C98    O183      1.10797      .   S
    C0     O184      1.10568      .   S
    C83    O184      1.10568  1_465   S
    C61    O185      0.70115      .   S
    C56    O185      0.70115      .   S
    C61    O186      0.75317      .   S
    C60    O186      0.75317      .   S
    C56    O187      0.54418      .   S
    C18    O187      0.54418      .   S
    C45    O188      0.63487      .   S
    C87    O188      0.63487      .   S
    C45    O189      0.64417      .   S
    C89    O189      0.64417      .   S
    C87    O190      1.17107      .   S
    C4     O190      1.17107      .   S
    C94    O191      0.63600      .   S
    C60    O191      0.63600      .   S
    C94    O192      1.12121      .   S
    C4     O192      1.12121      .   S
    C98    O193      0.63820      .   S
    C72    O193      0.63820  1_545   S
    C60    O194      0.63822      .   S
    C92    O194      0.63822      .   S
    C83    O195      0.64428  1_465   S
    C33    O195      0.64428      .   S
    C4     O196      1.12049      .   S
    C100   O196      1.12049      .   S
    C4     O197      1.17256      .   S
    C81    O197      1.17256      .   S
    C4     O198      1.20308      .   S
    C85    O198      1.20308      .   S
    C89    O199      1.10626      .   S
    C1     O199      1.10626      .   S
    C72    O200      0.63603      .   S
    C100   O200      0.63603      .   S
    C72    O201      0.75337  1_545   S
    C73    O201      0.75337      .   S
    C24    O202      0.54417      .   S
    C68    O202      0.54417      .   S
    C92    O203      1.10772      .   S
    C1     O203      1.10772      .   S
    C81    O204      0.63487      .   S
    C33    O204      0.63487      .   S
    C33    O205      0.74686      .   S
    C34    O205      0.74686      .   S
    C68    O206      0.70112      .   S
    C73    O206      0.70112      .   S
    C68    O207      0.69459      .   S
    C71    O207      0.69459      .   S
    C73    O208      0.70144      .   S
    C76    O208      0.70144      .   S
    C11    O209      0.54439      .   S
    C41    O209      0.54439      .   S
    C1     O210      1.17234      .   S
    C96    O210      1.17234      .   S
    C25    O211      0.54378      .   S
    C71    O211      0.54378      .   S
    C71    O212      0.70268      .   S
    C67    O212      0.70268      .   S
    C76    O213      0.54432  1_565   S
    C28    O213      0.54432      .   S
    C76    O214      0.69577      .   S
    C75    O214      0.69577      .   S
    C34    O215      0.70195  1_645   S
    C41    O215      0.70195      .   S
    C34    O216      0.70173      .   S
    C38    O216      0.70173      .   S
    C67    O217      0.70247      .   S
    C75    O217      0.70247      .   S
    C67    O218      0.74006      .   S
    C66    O218      0.74006      .   S
    C75    O219      0.54447      .   S
    C27    O219      0.54447      .   S
    C96    O220      0.64389      .   S
    C66    O220      0.64389      .   S
    C8     O221      0.54517      .   S
    C38    O221      0.54517      .   S
    C78    O222      1.18375      .   S
    C0     O222      1.18375      .   S
    C79    O223      1.23773      .   S
    C0     O223      1.23773      .   S
    C84    O224      1.18436  1_554   S
    C1     O224      1.18436      .   S
    C85    O225      1.23701      .   S
    C1     O225      1.23701      .   S
    C90    O226      1.18384      .   S
    C2     O226      1.18384      .   S
    C91    O227      1.23610      .   S
    C2     O227      1.23610      .   S
    C96    O228      1.18445  1_556   S
    C3     O228      1.18445      .   S
    C97    O229      1.23698      .   S
    C3     O229      1.23698      .   S
