# CIF file generated by openbabel 2.4.90, see http://openbabel.sf.net
data_I
_chemical_name_common ''
_cell_length_a 22.958
_cell_length_b 12.515
_cell_length_c 14.852
_cell_angle_alpha 90
_cell_angle_beta 90
_cell_angle_gamma 90
_space_group_name_H-M_alt 'P 1'
_space_group_name_Hall 'P 1'
loop_
    _symmetry_equiv_pos_as_xyz
    x,y,z
loop_
    _atom_site_label
    _atom_site_type_symbol
    _atom_site_fract_x
    _atom_site_fract_y
    _atom_site_fract_z
    _atom_site_occupancy
    Zn0     Zn   0.74999   0.00000   0.74998   1.000
    Zn1     Zn   0.25000   0.00000   0.24999   1.000
    Zn2     Zn   0.74999   0.00000   0.24999   1.000
    Zn3     Zn   0.24999   0.00000   0.74998   1.000
    Ts4     Ts   0.74945   0.95927   0.78389   1.000
    Ts5     Ts   0.75052   0.04074   0.78389   1.000
    Ts6     Ts   0.75052   0.95927   0.71607   1.000
    Ts7     Ts   0.74945   0.04074   0.71607   1.000
    Ts8     Ts   0.78172   0.00000   0.74998   1.000
    Ts9     Ts   0.71825   0.00000   0.74998   1.000
    Ts10    Ts   0.25053   0.04074   0.21608   1.000
    Ts11    Ts   0.24946   0.95927   0.21608   1.000
    Ts12    Ts   0.24946   0.04074   0.28390   1.000
    Ts13    Ts   0.25053   0.95927   0.28390   1.000
    Ts14    Ts   0.21826   0.00000   0.24996   1.000
    Ts15    Ts   0.28173   0.00000   0.24999   1.000
    Ts16    Ts   0.75052   0.04074   0.21608   1.000
    Ts17    Ts   0.74945   0.95927   0.21608   1.000
    Ts18    Ts   0.74945   0.04074   0.28390   1.000
    Ts19    Ts   0.75052   0.95927   0.28390   1.000
    Ts20    Ts   0.71825   0.00000   0.24999   1.000
    Ts21    Ts   0.78172   0.00000   0.24999   1.000
    Ts22    Ts   0.24946   0.95927   0.78389   1.000
    Ts23    Ts   0.25053   0.04074   0.78389   1.000
    Ts24    Ts   0.25053   0.95927   0.71607   1.000
    Ts25    Ts   0.24946   0.04074   0.71607   1.000
    Ts26    Ts   0.28173   0.00000   0.74998   1.000
    Ts27    Ts   0.21826   0.00000   0.73332   1.000
loop_
    _geom_bond_atom_site_label_1
    _geom_bond_atom_site_label_2
    _geom_bond_distance
    _geom_bond_site_symmetry_2
    _ccdc_geom_bond_type
    Zn0    Ts4       0.71661  1_545   S
    Zn0    Ts5       0.71671      .   S
    Zn0    Ts6       0.71661  1_545   S
    Zn0    Ts7       0.71671      .   S
    Zn0    Ts8       0.72853      .   S
    Zn0    Ts9       0.72853      .   S
    Zn1    Ts10      0.71671      .   S
    Zn1    Ts11      0.71661  1_545   S
    Zn1    Ts12      0.71671      .   S
    Zn1    Ts13      0.71661  1_545   S
    Zn1    Ts14      0.72853      .   S
    Zn1    Ts15      0.72853      .   S
    Zn2    Ts16      0.71671      .   S
    Zn2    Ts17      0.71661  1_545   S
    Zn2    Ts18      0.71671      .   S
    Zn2    Ts19      0.71661  1_545   S
    Zn2    Ts20      0.72853      .   S
    Zn2    Ts21      0.72853      .   S
    Zn3    Ts22      0.71661  1_545   S
    Zn3    Ts23      0.71671      .   S
    Zn3    Ts24      0.71661  1_545   S
    Zn3    Ts25      0.71671      .   S
    Zn3    Ts26      0.72853      .   S
    Zn3    Ts27      0.76940      .   S
