# CIF file generated by openbabel 2.4.90, see http://openbabel.sf.net
data_I
_chemical_name_common ''
_cell_length_a 18.27
_cell_length_b 20.957
_cell_length_c 18.59
_cell_angle_alpha 89.889
_cell_angle_beta 90.069
_cell_angle_gamma 89.959
_space_group_name_H-M_alt 'P 1'
_space_group_name_Hall 'P 1'
loop_
    _symmetry_equiv_pos_as_xyz
    x,y,z
loop_
    _atom_site_label
    _atom_site_type_symbol
    _atom_site_fract_x
    _atom_site_fract_y
    _atom_site_fract_z
    _atom_site_occupancy
    Zn0     Zn   0.06565   0.51101   0.59946   1.000
    Zn1     Zn   0.56565   0.01101   0.59946   1.000
    Zn2     Zn   0.56565   0.51101   0.59946   1.000
    Zn3     Zn   0.31555   0.48908   0.40068   1.000
    Zn4     Zn   0.31555   0.98907   0.40068   1.000
    Zn5     Zn   0.81555   0.48908   0.40068   1.000
    Zn6     Zn   0.81554   0.98907   0.40068   1.000
    Zn7     Zn   0.06574   0.24057   0.09932   1.000
    Zn8     Zn   0.06574   0.74056   0.09932   1.000
    Zn9     Zn   0.56573   0.24056   0.09932   1.000
    Zn10    Zn   0.56573   0.74056   0.09932   1.000
    Zn11    Zn   0.31550   0.26101   0.90062   1.000
    Zn12    Zn   0.31549   0.76101   0.90062   1.000
    Zn13    Zn   0.81549   0.26101   0.90062   1.000
    Zn14    Zn   0.81549   0.76101   0.90062   1.000
    Zn15    Zn   0.06566   0.01101   0.59946   1.000
    C16     C    0.46402   0.46844   0.70006   1.000
    C17     C    0.46401   0.96843   0.70000   1.000
    C18     C    0.96401   0.46844   0.70000   1.000
    C19     C    0.96401   0.96843   0.70000   1.000
    C20     C    0.21391   0.03200   0.29982   1.000
    C21     C    0.21391   0.53199   0.29982   1.000
    C22     C    0.71391   0.03200   0.29981   1.000
    C23     C    0.71391   0.53199   0.29980   1.000
    C24     C    0.46380   0.28195   0.20023   1.000
    C25     C    0.46380   0.78195   0.20023   1.000
    C26     C    0.96380   0.28195   0.20023   1.000
    C27     C    0.96379   0.78195   0.20023   1.000
    C28     C    0.21400   0.21827   0.79996   1.000
    C29     C    0.21400   0.71827   0.79996   1.000
    C30     C    0.71400   0.21827   0.79996   1.000
    C31     C    0.71400   0.71827   0.79996   1.000
    O32     O    0.02137   0.44725   0.66576   1.000
    O33     O    0.02137   0.94725   0.66576   1.000
    O34     O    0.52137   0.44725   0.66576   1.000
    O35     O    0.52136   0.94725   0.66576   1.000
    O36     O    0.43784   0.02292   0.69386   1.000
    O37     O    0.43784   0.52292   0.69386   1.000
    O38     O    0.93783   0.02292   0.69386   1.000
    O39     O    0.93783   0.52292   0.69386   1.000
    O40     O    0.27138   0.05290   0.33421   1.000
    O41     O    0.27137   0.55290   0.33421   1.000
    O42     O    0.77137   0.05290   0.33421   1.000
    O43     O    0.77137   0.55290   0.33421   1.000
    O44     O    0.18753   0.47762   0.30605   1.000
    O45     O    0.18753   0.97761   0.30605   1.000
    O46     O    0.68753   0.47762   0.30600   1.000
    O47     O    0.68752   0.97762   0.30606   1.000
    O48     O    0.02115   0.30330   0.16600   1.000
    O49     O    0.02115   0.80330   0.16600   1.000
    O50     O    0.52115   0.30330   0.16600   1.000
    O51     O    0.52114   0.80330   0.16600   1.000
    O52     O    0.43760   0.22756   0.19380   1.000
    O53     O    0.43760   0.72756   0.19380   1.000
    O54     O    0.93759   0.22757   0.19380   1.000
    O55     O    0.93759   0.72756   0.19380   1.000
    O56     O    0.27148   0.19719   0.83435   1.000
    O57     O    0.27147   0.69719   0.83435   1.000
    O58     O    0.77147   0.19718   0.83436   1.000
    O59     O    0.77147   0.69719   0.83435   1.000
    O60     O    0.18758   0.27263   0.80621   1.000
    O61     O    0.18758   0.77263   0.80621   1.000
    O62     O    0.68757   0.27263   0.80621   1.000
    O63     O    0.68757   0.77263   0.80621   1.000
    Ts64    Ts   0.09579   0.49658   0.58610   1.000
    Ts65    Ts   0.04384   0.51964   0.57295   1.000
    Ts66    Ts   0.08056   0.53407   0.62066   1.000
    Ts67    Ts   0.59578   0.99658   0.58610   1.000
    Ts68    Ts   0.54384   0.01965   0.57295   1.000
    Ts69    Ts   0.58056   0.03407   0.62066   1.000
    Ts70    Ts   0.59578   0.49658   0.58610   1.000
    Ts71    Ts   0.54383   0.51964   0.57295   1.000
    Ts72    Ts   0.58055   0.53407   0.62066   1.000
    Ts73    Ts   0.29377   0.48051   0.42720   1.000
    Ts74    Ts   0.34568   0.50356   0.41401   1.000
    Ts75    Ts   0.33041   0.46599   0.37955   1.000
    Ts76    Ts   0.29377   0.98051   0.42720   1.000
    Ts77    Ts   0.34568   0.00356   0.41401   1.000
    Ts78    Ts   0.33041   0.96599   0.37955   1.000
    Ts79    Ts   0.79377   0.48051   0.42720   1.000
    Ts80    Ts   0.84567   0.50356   0.41401   1.000
    Ts81    Ts   0.83040   0.46599   0.37955   1.000
    Ts82    Ts   0.79377   0.98051   0.42720   1.000
    Ts83    Ts   0.84567   0.00356   0.41401   1.000
    Ts84    Ts   0.83040   0.96599   0.37955   1.000
    Ts85    Ts   0.08069   0.21736   0.12051   1.000
    Ts86    Ts   0.09580   0.25496   0.08585   1.000
    Ts87    Ts   0.04398   0.23176   0.07287   1.000
    Ts88    Ts   0.08068   0.71736   0.12051   1.000
    Ts89    Ts   0.09580   0.75495   0.08555   1.000
    Ts90    Ts   0.04397   0.73176   0.07287   1.000
    Ts91    Ts   0.58068   0.21736   0.12051   1.000
    Ts92    Ts   0.59580   0.25495   0.08585   1.000
    Ts93    Ts   0.54397   0.23176   0.07287   1.000
    Ts94    Ts   0.58068   0.71736   0.12051   1.000
    Ts95    Ts   0.59579   0.75495   0.08555   1.000
    Ts96    Ts   0.54397   0.73176   0.07287   1.000
    Ts97    Ts   0.34563   0.24661   0.91408   1.000
    Ts98    Ts   0.33036   0.28407   0.87935   1.000
    Ts99    Ts   0.29376   0.26985   0.92705   1.000
    Ts100   Ts   0.34563   0.74661   0.91408   1.000
    Ts101   Ts   0.33035   0.78407   0.87935   1.000
    Ts102   Ts   0.29376   0.76985   0.92705   1.000
    Ts103   Ts   0.84562   0.24661   0.91408   1.000
    Ts104   Ts   0.83035   0.28407   0.87935   1.000
    Ts105   Ts   0.79376   0.26985   0.92705   1.000
    Ts106   Ts   0.84562   0.74661   0.91408   1.000
    Ts107   Ts   0.83035   0.78407   0.87935   1.000
    Ts108   Ts   0.79375   0.76985   0.92705   1.000
    Ts109   Ts   0.09579   0.99659   0.58610   1.000
    Ts110   Ts   0.04384   0.01965   0.57295   1.000
    Ts111   Ts   0.08056   0.03407   0.62066   1.000
    Og112   Og   0.45209   0.45227   0.71625   1.000
    Og113   Og   0.45209   0.95227   0.71620   1.000
    Og114   Og   0.95209   0.45227   0.71621   1.000
    Og115   Og   0.95209   0.95227   0.71621   1.000
    Og116   Og   0.20205   0.04823   0.28361   1.000
    Og117   Og   0.20204   0.54823   0.28361   1.000
    Og118   Og   0.70204   0.04823   0.28354   1.000
    Og119   Og   0.70204   0.54823   0.28360   1.000
    Og120   Og   0.45191   0.29806   0.21648   1.000
    Og121   Og   0.45191   0.79805   0.21645   1.000
    Og122   Og   0.95191   0.29805   0.21648   1.000
    Og123   Og   0.95190   0.79805   0.21648   1.000
    Og124   Og   0.20213   0.20213   0.78374   1.000
    Og125   Og   0.20213   0.70212   0.78374   1.000
    Og126   Og   0.70213   0.20213   0.78374   1.000
    Og127   Og   0.70213   0.70213   0.78374   1.000
loop_
    _geom_bond_atom_site_label_1
    _geom_bond_atom_site_label_2
    _geom_bond_distance
    _geom_bond_site_symmetry_2
    _ccdc_geom_bond_type
    Zn7    O48       1.98390      .   S
    Zn8    O49       1.98388      .   S
    Zn9    O50       1.98392      .   S
    Zn10   O51       1.98394      .   S
    O51    C25       1.30527      .   S
    O50    C24       1.30531      .   S
    O49    C27       1.30551  1_455   S
    O48    C26       1.30546  1_455   S
    O55    C27       1.24250      .   S
    O52    C24       1.24252      .   S
    O53    C25       1.24251      .   S
    O54    C26       1.24249      .   S
    C23    O46       1.24281      .   S
    C23    O43       1.30512      .   S
    C22    O47       1.24300  1_545   S
    C22    O42       1.30501      .   S
    C20    O45       1.24298  1_545   S
    C20    O40       1.30498      .   S
    C21    O44       1.24286      .   S
    C21    O41       1.30499      .   S
    O41    Zn3       1.98921      .   S
    O42    Zn6       1.98929  1_545   S
    O43    Zn5       1.98923      .   S
    O40    Zn4       1.98923  1_545   S
    Zn0    O32       1.98912      .   S
    Zn2    O34       1.98912      .   S
    Zn1    O35       1.98919  1_545   S
    Zn15   O33       1.98920  1_545   S
    O32    C18       1.30483  1_455   S
    O33    C19       1.30483  1_455   S
    O34    C16       1.30523      .   S
    O35    C17       1.30468      .   S
    O37    C16       1.24275      .   S
    O36    C17       1.24269  1_545   S
    O38    C19       1.24270  1_545   S
    O39    C18       1.24265      .   S
    C29    O61       1.24276      .   S
    C29    O57       1.30504      .   S
    C31    O63       1.24278      .   S
    C31    O59       1.30503      .   S
    C30    O62       1.24274      .   S
    C30    O58       1.30503      .   S
    C28    O60       1.24275      .   S
    C28    O56       1.30508      .   S
    O59    Zn14      1.98981      .   S
    O56    Zn11      1.98980      .   S
    O57    Zn12      1.98981      .   S
    O58    Zn13      1.98978      .   S
    Zn0    Ts64      0.67570      .   S
    Zn0    Ts65      0.65848      .   S
    Zn0    Ts66      0.68081      .   S
    Zn1    Ts67      0.67569  1_545   S
    Zn1    Ts68      0.65848      .   S
    Zn1    Ts69      0.68083      .   S
    Zn2    Ts70      0.67570      .   S
    Zn2    Ts71      0.65848      .   S
    Zn2    Ts72      0.68082      .   S
    Zn3    Ts73      0.65858      .   S
    Zn3    Ts74      0.67584      .   S
    Zn3    Ts75      0.68032      .   S
    Zn4    Ts76      0.65859      .   S
    Zn4    Ts77      0.67586  1_565   S
    Zn4    Ts78      0.68032      .   S
    Zn5    Ts79      0.65858      .   S
    Zn5    Ts80      0.67583      .   S
    Zn5    Ts81      0.68033      .   S
    Zn6    Ts82      0.65858      .   S
    Zn6    Ts83      0.67587  1_565   S
    Zn6    Ts84      0.68031      .   S
    Zn7    Ts85      0.68191      .   S
    Zn7    Ts86      0.67501      .   S
    Zn7    Ts87      0.65871      .   S
    Zn8    Ts88      0.68189      .   S
    Zn8    Ts89      0.67710      .   S
    Zn8    Ts90      0.65871      .   S
    Zn9    Ts91      0.68191      .   S
    Zn9    Ts92      0.67501      .   S
    Zn9    Ts93      0.65871      .   S
    Zn10   Ts94      0.68191      .   S
    Zn10   Ts95      0.67710      .   S
    Zn10   Ts96      0.65871      .   S
    Zn11   Ts97      0.67525      .   S
    Zn11   Ts98      0.68056      .   S
    Zn11   Ts99      0.65892      .   S
    Zn12   Ts100     0.67525      .   S
    Zn12   Ts101     0.68056      .   S
    Zn12   Ts102     0.65893      .   S
    Zn13   Ts103     0.67525      .   S
    Zn13   Ts104     0.68055      .   S
    Zn13   Ts105     0.65892      .   S
    Zn14   Ts106     0.67525      .   S
    Zn14   Ts107     0.68056      .   S
    Zn14   Ts108     0.65892      .   S
    Zn15   Ts109     0.67569  1_545   S
    Zn15   Ts110     0.65847      .   S
    Zn15   Ts111     0.68081      .   S
    C16    Og112     0.50265      .   S
    C17    Og113     0.50280      .   S
    C18    Og114     0.50288      .   S
    C19    Og115     0.50287      .   S
    C20    Og116     0.50289      .   S
    C21    Og117     0.50289      .   S
    C22    Og118     0.50360      .   S
    C23    Og119     0.50282      .   S
    C24    Og120     0.50271      .   S
    C25    Og121     0.50245      .   S
    C26    Og122     0.50272      .   S
    C27    Og123     0.50272      .   S
    C28    Og124     0.50267      .   S
    C29    Og125     0.50267      .   S
    C30    Og126     0.50270      .   S
    C31    Og127     0.50270      .   S
