# CIF file generated by openbabel 2.4.90, see http://openbabel.sf.net
data_I
_chemical_name_common ''
_cell_length_a 14.297
_cell_length_b 18.902
_cell_length_c 18.901
_cell_angle_alpha 66.133
_cell_angle_beta 75.395
_cell_angle_gamma 104.605
_space_group_name_H-M_alt 'P 1'
_space_group_name_Hall 'P 1'
loop_
    _symmetry_equiv_pos_as_xyz
    x,y,z
loop_
    _atom_site_label
    _atom_site_type_symbol
    _atom_site_fract_x
    _atom_site_fract_y
    _atom_site_fract_z
    _atom_site_occupancy
    Cu0     Cu   0.52638   0.97703   0.44904   1.000
    Cu1     Cu   0.97554   0.44906   0.57381   1.000
    Cu2     Cu   0.45057   0.42619   0.02291   1.000
    Cu3     Cu   0.47379   0.02296   0.55080   1.000
    Cu4     Cu   0.02447   0.55089   0.42616   1.000
    Cu5     Cu   0.54950   0.57381   0.97706   1.000
    C6      C    0.18049   0.58024   0.49008   1.000
    C7      C    0.47219   0.54513   0.86275   1.000
    C8      C    0.67058   0.49020   0.92939   1.000
    C9      C    0.33524   0.86264   0.59213   1.000
    C10     C    0.60028   0.92954   0.58021   1.000
    C11     C    0.92737   0.59228   0.54494   1.000
    C12     C    0.81949   0.41969   0.50995   1.000
    C13     C    0.52791   0.45488   0.13720   1.000
    C14     C    0.32949   0.50979   0.07057   1.000
    C15     C    0.66494   0.13736   0.40769   1.000
    C16     C    0.39988   0.07045   0.41970   1.000
    C17     C    0.07257   0.40765   0.45500   1.000
    O18     O    0.11704   0.51409   0.56109   1.000
    O19     O    0.16271   0.60830   0.42309   1.000
    O20     O    0.43274   0.46571   0.91536   1.000
    O21     O    0.52536   0.60338   0.87273   1.000
    O22     O    0.67828   0.56118   0.92464   1.000
    O23     O    0.58572   0.42328   0.96810   1.000
    O24     O    0.34874   0.91518   0.61900   1.000
    O25     O    0.39805   0.87271   0.52370   1.000
    O26     O    0.60284   0.92466   0.51410   1.000
    O27     O    0.55466   0.96863   0.60800   1.000
    O28     O    0.96773   0.61926   0.46549   1.000
    O29     O    0.92193   0.52390   0.60322   1.000
    O30     O    0.88293   0.48584   0.43890   1.000
    O31     O    0.83727   0.39163   0.57694   1.000
    O32     O    0.56706   0.53432   0.08472   1.000
    O33     O    0.47499   0.39662   0.12712   1.000
    O34     O    0.32183   0.43873   0.07555   1.000
    O35     O    0.41430   0.57676   0.03156   1.000
    O36     O    0.65138   0.08485   0.38078   1.000
    O37     O    0.60223   0.12721   0.47600   1.000
    O38     O    0.39751   0.07547   0.48572   1.000
    O39     O    0.44537   0.03127   0.39178   1.000
    O40     O    0.03228   0.38071   0.53445   1.000
    O41     O    0.07808   0.47607   0.39672   1.000
    Og42    Og   0.21468   0.59688   0.48861   1.000
    Og43    Og   0.46653   0.55424   0.83621   1.000
    Og44    Og   0.70331   0.48872   0.91423   1.000
    Og45    Og   0.30304   0.83611   0.60958   1.000
    Og46    Og   0.61782   0.91436   0.59685   1.000
    Og47    Og   0.91262   0.60971   0.55406   1.000
    Og48    Og   0.78530   0.40305   0.51142   1.000
    Og49    Og   0.53356   0.44577   0.16373   1.000
    Og50    Og   0.29677   0.51128   0.08572   1.000
    Og51    Og   0.69713   0.16390   0.39025   1.000
    Og52    Og   0.38232   0.08563   0.40307   1.000
    Og53    Og   0.08732   0.39022   0.44589   1.000
loop_
    _geom_bond_atom_site_label_1
    _geom_bond_atom_site_label_2
    _geom_bond_distance
    _geom_bond_site_symmetry_2
    _ccdc_geom_bond_type
    Cu2    O34       1.98032      .   S
    Cu2    O33       1.96678      .   S
    Cu2    O20       1.97080  1_554   S
    Cu2    O23       1.97476  1_554   S
    O35    C14       1.27915      .   S
    O35    Cu5       1.97419  1_554   S
    C14    O34       1.28191      .   S
    O32    C13       1.28166      .   S
    O32    Cu5       1.97078  1_554   S
    O33    C13       1.28215      .   S
    O36    C15       1.28164      .   S
    O36    Cu0       1.97087  1_545   S
    O39    C16       1.27909      .   S
    O39    Cu0       1.97409  1_545   S
    O41    Cu4       1.96620      .   S
    O41    C17       1.28217      .   S
    C15    O37       1.27932      .   S
    C16    O38       1.28192      .   S
    O19    Cu4       1.97405      .   S
    O19    C6        1.27903      .   S
    Cu4    O30       1.98108  1_455   S
    Cu4    O28       1.97047  1_455   S
    O30    C12       1.28237      .   S
    Cu0    O26       1.98133      .   S
    Cu0    O25       1.96577      .   S
    C17    O40       1.28186      .   S
    O28    C11       1.28179      .   S
    O37    Cu3       1.96595      .   S
    O38    Cu3       1.98051      .   S
    C6     O18       1.28205      .   S
    C12    O31       1.27901      .   S
    O26    C10       1.28190      .   S
    O25    C9        1.28236      .   S
    O40    Cu1       1.97047  1_455   S
    C11    O29       1.28223      .   S
    Cu3    O27       1.97253  1_545   S
    Cu3    O24       1.97091  1_545   S
    O18    Cu1       1.98069  1_455   S
    Cu1    O31       1.97400      .   S
    Cu1    O29       1.96612      .   S
    C10    O27       1.27721      .   S
    C9     O24       1.28162      .   S
    C7     O21       1.28219      .   S
    C7     O20       1.28169      .   S
    O21    Cu5       1.96691      .   S
    O22    C8        1.28192      .   S
    O22    Cu5       1.98023      .   S
    C8     O23       1.27927      .   S
    Cu5    Cu2       2.44379  1_556   S
    Cu0    Cu3       2.44322  1_565   S
    Cu1    Cu4       2.44375  1_655   S
    C6     Og42      0.49727      .   S
    C7     Og43      0.49540      .   S
    C8     Og44      0.49725      .   S
    C9     Og45      0.49535      .   S
    C10    Og46      0.49720      .   S
    C11    Og47      0.49537      .   S
    C12    Og48      0.49725      .   S
    C13    Og49      0.49526      .   S
    C14    Og50      0.49724      .   S
    C15    Og51      0.49535      .   S
    C16    Og52      0.49720      .   S
    C17    Og53      0.49537      .   S
