# CIF file generated by openbabel 2.4.90, see http://openbabel.sf.net
data_I
_chemical_name_common ''
_cell_length_a 11.706
_cell_length_b 20.742
_cell_length_c 23.396
_cell_angle_alpha 86.75
_cell_angle_beta 87.624
_cell_angle_gamma 83.614
_space_group_name_H-M_alt 'P 1'
_space_group_name_Hall 'P 1'
loop_
    _symmetry_equiv_pos_as_xyz
    x,y,z
loop_
    _atom_site_label
    _atom_site_type_symbol
    _atom_site_fract_x
    _atom_site_fract_y
    _atom_site_fract_z
    _atom_site_occupancy
    La0     La   0.11065   0.07129   0.73552   1.000
    La1     La   0.11064   0.57129   0.23552   1.000
    La2     La   0.11065   0.57128   0.73552   1.000
    La3     La   0.61067   0.07129   0.23551   1.000
    La4     La   0.61067   0.07129   0.73552   1.000
    La5     La   0.61066   0.57129   0.23552   1.000
    La6     La   0.61067   0.57128   0.73552   1.000
    La7     La   0.38931   0.42870   0.26448   1.000
    La8     La   0.38931   0.42870   0.76448   1.000
    La9     La   0.38930   0.92870   0.26448   1.000
    La10    La   0.38932   0.92869   0.76448   1.000
    La11    La   0.88933   0.42870   0.26448   1.000
    La12    La   0.88933   0.42870   0.76448   1.000
    La13    La   0.88932   0.92870   0.26448   1.000
    La14    La   0.88934   0.92869   0.76448   1.000
    La15    La   0.11065   0.07129   0.23551   1.000
    Ts16    Ts   0.05354   0.06071   0.75626   1.000
    Ts17    Ts   0.06910   0.11048   0.75199   1.000
    Ts18    Ts   0.15559   0.08540   0.75637   1.000
    Ts19    Ts   0.05689   0.08170   0.71443   1.000
    Ts20    Ts   0.15037   0.08822   0.70777   1.000
    Ts21    Ts   0.17594   0.05314   0.72280   1.000
    Ts22    Ts   0.09399   0.03433   0.72441   1.000
    Ts23    Ts   0.13825   0.04190   0.75789   1.000
    Ts24    Ts   0.05353   0.56071   0.25626   1.000
    Ts25    Ts   0.06909   0.61048   0.25199   1.000
    Ts26    Ts   0.15558   0.58540   0.25637   1.000
    Ts27    Ts   0.05688   0.58170   0.21443   1.000
    Ts28    Ts   0.15036   0.58821   0.20777   1.000
    Ts29    Ts   0.17593   0.55314   0.22280   1.000
    Ts30    Ts   0.09398   0.53433   0.22444   1.000
    Ts31    Ts   0.13824   0.54191   0.25789   1.000
    Ts32    Ts   0.05354   0.56070   0.75626   1.000
    Ts33    Ts   0.06909   0.61048   0.75199   1.000
    Ts34    Ts   0.15559   0.58539   0.75637   1.000
    Ts35    Ts   0.05689   0.58169   0.71441   1.000
    Ts36    Ts   0.15037   0.58821   0.70777   1.000
    Ts37    Ts   0.17594   0.55313   0.72280   1.000
    Ts38    Ts   0.09399   0.53433   0.72444   1.000
    Ts39    Ts   0.13825   0.54190   0.75789   1.000
    Ts40    Ts   0.56909   0.11049   0.25198   1.000
    Ts41    Ts   0.65561   0.08540   0.25636   1.000
    Ts42    Ts   0.55354   0.06071   0.25625   1.000
    Ts43    Ts   0.55690   0.08170   0.21442   1.000
    Ts44    Ts   0.65038   0.08822   0.20776   1.000
    Ts45    Ts   0.67596   0.05314   0.22279   1.000
    Ts46    Ts   0.59400   0.03433   0.22444   1.000
    Ts47    Ts   0.63827   0.04190   0.25787   1.000
    Ts48    Ts   0.56910   0.11048   0.75199   1.000
    Ts49    Ts   0.65561   0.08540   0.75637   1.000
    Ts50    Ts   0.55355   0.06071   0.75626   1.000
    Ts51    Ts   0.55690   0.08170   0.71443   1.000
    Ts52    Ts   0.65039   0.08822   0.70777   1.000
    Ts53    Ts   0.67596   0.05314   0.72280   1.000
    Ts54    Ts   0.59401   0.03433   0.72444   1.000
    Ts55    Ts   0.63827   0.04190   0.75789   1.000
    Ts56    Ts   0.56909   0.61048   0.25199   1.000
    Ts57    Ts   0.65560   0.58540   0.25637   1.000
    Ts58    Ts   0.55354   0.56071   0.25626   1.000
    Ts59    Ts   0.55689   0.58170   0.21443   1.000
    Ts60    Ts   0.65037   0.58821   0.20777   1.000
    Ts61    Ts   0.67595   0.55314   0.22280   1.000
    Ts62    Ts   0.59400   0.53434   0.22441   1.000
    Ts63    Ts   0.63826   0.54191   0.25788   1.000
    Ts64    Ts   0.56910   0.61048   0.75198   1.000
    Ts65    Ts   0.65561   0.58539   0.75637   1.000
    Ts66    Ts   0.55355   0.56070   0.75626   1.000
    Ts67    Ts   0.55690   0.58169   0.71443   1.000
    Ts68    Ts   0.65039   0.58821   0.70777   1.000
    Ts69    Ts   0.67596   0.55313   0.72280   1.000
    Ts70    Ts   0.59401   0.53433   0.72444   1.000
    Ts71    Ts   0.63827   0.54190   0.75789   1.000
    Ts72    Ts   0.43088   0.38950   0.24802   1.000
    Ts73    Ts   0.40597   0.46565   0.27557   1.000
    Ts74    Ts   0.36171   0.45808   0.24211   1.000
    Ts75    Ts   0.34438   0.41459   0.24361   1.000
    Ts76    Ts   0.44644   0.43928   0.24372   1.000
    Ts77    Ts   0.44309   0.41828   0.28557   1.000
    Ts78    Ts   0.34961   0.41177   0.29223   1.000
    Ts79    Ts   0.32402   0.44685   0.27720   1.000
    Ts80    Ts   0.43089   0.38950   0.74801   1.000
    Ts81    Ts   0.40598   0.46565   0.77557   1.000
    Ts82    Ts   0.36171   0.45808   0.74211   1.000
    Ts83    Ts   0.34438   0.41459   0.74361   1.000
    Ts84    Ts   0.44644   0.43928   0.74375   1.000
    Ts85    Ts   0.44309   0.41828   0.78557   1.000
    Ts86    Ts   0.34961   0.41177   0.79223   1.000
    Ts87    Ts   0.32403   0.44685   0.77720   1.000
    Ts88    Ts   0.43088   0.88949   0.24801   1.000
    Ts89    Ts   0.40597   0.96565   0.27557   1.000
    Ts90    Ts   0.36171   0.95808   0.24211   1.000
    Ts91    Ts   0.34437   0.91459   0.24361   1.000
    Ts92    Ts   0.44643   0.93928   0.24375   1.000
    Ts93    Ts   0.44308   0.91828   0.28557   1.000
    Ts94    Ts   0.34960   0.91177   0.29223   1.000
    Ts95    Ts   0.32402   0.94685   0.27719   1.000
    Ts96    Ts   0.43089   0.88949   0.74802   1.000
    Ts97    Ts   0.40598   0.96564   0.77557   1.000
    Ts98    Ts   0.36172   0.95807   0.74211   1.000
    Ts99    Ts   0.34439   0.91458   0.74361   1.000
    Ts100   Ts   0.44644   0.93927   0.74375   1.000
    Ts101   Ts   0.44310   0.91827   0.78557   1.000
    Ts102   Ts   0.34961   0.91176   0.79223   1.000
    Ts103   Ts   0.32403   0.94684   0.77720   1.000
    Ts104   Ts   0.90599   0.46565   0.27557   1.000
    Ts105   Ts   0.93089   0.38950   0.24801   1.000
    Ts106   Ts   0.86173   0.45808   0.24211   1.000
    Ts107   Ts   0.84440   0.41459   0.24361   1.000
    Ts108   Ts   0.94644   0.43928   0.24375   1.000
    Ts109   Ts   0.94310   0.41828   0.28557   1.000
    Ts110   Ts   0.84963   0.41177   0.29223   1.000
    Ts111   Ts   0.82404   0.44685   0.27719   1.000
    Ts112   Ts   0.90599   0.46565   0.77557   1.000
    Ts113   Ts   0.93090   0.38950   0.74801   1.000
    Ts114   Ts   0.86173   0.45808   0.74211   1.000
    Ts115   Ts   0.84440   0.41459   0.74361   1.000
    Ts116   Ts   0.94644   0.43928   0.74375   1.000
    Ts117   Ts   0.94310   0.41828   0.78557   1.000
    Ts118   Ts   0.84963   0.41177   0.79223   1.000
    Ts119   Ts   0.82404   0.44685   0.77720   1.000
    Ts120   Ts   0.93089   0.88949   0.24801   1.000
    Ts121   Ts   0.90598   0.96565   0.27557   1.000
    Ts122   Ts   0.86172   0.95808   0.24211   1.000
    Ts123   Ts   0.84439   0.91459   0.24361   1.000
    Ts124   Ts   0.94643   0.93928   0.24375   1.000
    Ts125   Ts   0.94309   0.91828   0.28557   1.000
    Ts126   Ts   0.84962   0.91177   0.29223   1.000
    Ts127   Ts   0.82403   0.94685   0.27719   1.000
    Ts128   Ts   0.90600   0.96564   0.77557   1.000
    Ts129   Ts   0.93089   0.88949   0.74802   1.000
    Ts130   Ts   0.86174   0.95807   0.74211   1.000
    Ts131   Ts   0.84440   0.91458   0.74361   1.000
    Ts132   Ts   0.94645   0.93927   0.74372   1.000
    Ts133   Ts   0.94310   0.91827   0.78557   1.000
    Ts134   Ts   0.84963   0.91176   0.79223   1.000
    Ts135   Ts   0.82405   0.94684   0.77720   1.000
    Ts136   Ts   0.06909   0.11049   0.25198   1.000
    Ts137   Ts   0.15559   0.08540   0.25636   1.000
    Ts138   Ts   0.05354   0.06071   0.25625   1.000
    Ts139   Ts   0.05689   0.08170   0.21442   1.000
    Ts140   Ts   0.15036   0.08822   0.20776   1.000
    Ts141   Ts   0.17594   0.05314   0.22279   1.000
    Ts142   Ts   0.09399   0.03433   0.22443   1.000
    Ts143   Ts   0.13825   0.04190   0.25787   1.000
loop_
    _geom_bond_atom_site_label_1
    _geom_bond_atom_site_label_2
    _geom_bond_distance
    _geom_bond_site_symmetry_2
    _ccdc_geom_bond_type
    La0    Ts16      0.85101      .   S
    La0    Ts17      0.98898      .   S
    La0    Ts18      0.81988      .   S
    La0    Ts19      0.81826      .   S
    La0    Ts20      0.86394      .   S
    La0    Ts21      0.86266      .   S
    La0    Ts22      0.86784      .   S
    La0    Ts23      0.82696      .   S
    La1    Ts24      0.85101      .   S
    La1    Ts25      0.98893      .   S
    La1    Ts26      0.81983      .   S
    La1    Ts27      0.81830      .   S
    La1    Ts28      0.86394      .   S
    La1    Ts29      0.86270      .   S
    La1    Ts30      0.86753      .   S
    La1    Ts31      0.82691      .   S
    La2    Ts32      0.85101      .   S
    La2    Ts33      0.98916      .   S
    La2    Ts34      0.81985      .   S
    La2    Ts35      0.81853      .   S
    La2    Ts36      0.86394      .   S
    La2    Ts37      0.86263      .   S
    La2    Ts38      0.86747      .   S
    La2    Ts39      0.82688      .   S
    La3    Ts40      0.98926      .   S
    La3    Ts41      0.81986      .   S
    La3    Ts42      0.85117      .   S
    La3    Ts43      0.81840      .   S
    La3    Ts44      0.86389      .   S
    La3    Ts45      0.86263      .   S
    La3    Ts46      0.86754      .   S
    La3    Ts47      0.82679      .   S
    La4    Ts48      0.98902      .   S
    La4    Ts49      0.81983      .   S
    La4    Ts50      0.85112      .   S
    La4    Ts51      0.81837      .   S
    La4    Ts52      0.86394      .   S
    La4    Ts53      0.86266      .   S
    La4    Ts54      0.86759      .   S
    La4    Ts55      0.82696      .   S
    La5    Ts56      0.98898      .   S
    La5    Ts57      0.81983      .   S
    La5    Ts58      0.85112      .   S
    La5    Ts59      0.81842      .   S
    La5    Ts60      0.86394      .   S
    La5    Ts61      0.86270      .   S
    La5    Ts62      0.86776      .   S
    La5    Ts63      0.82672      .   S
    La6    Ts64      0.98908      .   S
    La6    Ts65      0.81980      .   S
    La6    Ts66      0.85113      .   S
    La6    Ts67      0.81840      .   S
    La6    Ts68      0.86394      .   S
    La6    Ts69      0.86262      .   S
    La6    Ts70      0.86749      .   S
    La6    Ts71      0.82688      .   S
    La7    Ts72      0.98896      .   S
    La7    Ts73      0.86757      .   S
    La7    Ts74      0.82693      .   S
    La7    Ts75      0.82003      .   S
    La7    Ts76      0.85134      .   S
    La7    Ts77      0.81845      .   S
    La7    Ts78      0.86381      .   S
    La7    Ts79      0.86271      .   S
    La8    Ts80      0.98920      .   S
    La8    Ts81      0.86754      .   S
    La8    Ts82      0.82685      .   S
    La8    Ts83      0.81997      .   S
    La8    Ts84      0.85098      .   S
    La8    Ts85      0.81847      .   S
    La8    Ts86      0.86381      .   S
    La8    Ts87      0.86268      .   S
    La9    Ts88      0.98924      .   S
    La9    Ts89      0.86763      .   S
    La9    Ts90      0.82694      .   S
    La9    Ts91      0.82000      .   S
    La9    Ts92      0.85098      .   S
    La9    Ts93      0.81848      .   S
    La9    Ts94      0.86382      .   S
    La9    Ts95      0.86256      .   S
    La10   Ts96      0.98901      .   S
    La10   Ts97      0.86766      .   S
    La10   Ts98      0.82694      .   S
    La10   Ts99      0.81998      .   S
    La10   Ts100     0.85098      .   S
    La10   Ts101     0.81845      .   S
    La10   Ts102     0.86381      .   S
    La10   Ts103     0.86271      .   S
    La11   Ts104     0.86756      .   S
    La11   Ts105     0.98896      .   S
    La11   Ts106     0.82692      .   S
    La11   Ts107     0.82004      .   S
    La11   Ts108     0.85090      .   S
    La11   Ts109     0.81834      .   S
    La11   Ts110     0.86381      .   S
    La11   Ts111     0.86261      .   S
    La12   Ts112     0.86753      .   S
    La12   Ts113     0.98915      .   S
    La12   Ts114     0.82685      .   S
    La12   Ts115     0.82001      .   S
    La12   Ts116     0.85087      .   S
    La12   Ts117     0.81836      .   S
    La12   Ts118     0.86382      .   S
    La12   Ts119     0.86268      .   S
    La13   Ts120     0.98920      .   S
    La13   Ts121     0.86761      .   S
    La13   Ts122     0.82694      .   S
    La13   Ts123     0.82000      .   S
    La13   Ts124     0.85091      .   S
    La13   Ts125     0.81836      .   S
    La13   Ts126     0.86382      .   S
    La13   Ts127     0.86256      .   S
    La14   Ts128     0.86764      .   S
    La14   Ts129     0.98896      .   S
    La14   Ts130     0.82693      .   S
    La14   Ts131     0.82003      .   S
    La14   Ts132     0.85123      .   S
    La14   Ts133     0.81834      .   S
    La14   Ts134     0.86382      .   S
    La14   Ts135     0.86272      .   S
    La15   Ts136     0.98920      .   S
    La15   Ts137     0.81985      .   S
    La15   Ts138     0.85106      .   S
    La15   Ts139     0.81828      .   S
    La15   Ts140     0.86389      .   S
    La15   Ts141     0.86263      .   S
    La15   Ts142     0.86756      .   S
    La15   Ts143     0.82678      .   S
