# CIF file generated by openbabel 2.4.90, see http://openbabel.sf.net
data_I
_chemical_name_common ''
_cell_length_a 8.75381
_cell_length_b 9.01039
_cell_length_c 14.899
_cell_angle_alpha 90.0054
_cell_angle_beta 90.0205
_cell_angle_gamma 90.0046
_space_group_name_H-M_alt 'P 1'
_space_group_name_Hall 'P 1'
loop_
    _symmetry_equiv_pos_as_xyz
    x,y,z
loop_
    _atom_site_label
    _atom_site_type_symbol
    _atom_site_fract_x
    _atom_site_fract_y
    _atom_site_fract_z
    _atom_site_occupancy
    Y0      Y    0.50069   0.00043   0.29303   1.000
    Y1      Y    0.00060   0.00039   0.98647   1.000
    Y2      Y    0.49908   0.50039   0.48646   1.000
    C3      C    0.24909   0.33415   0.63970   1.000
    C4      C    0.16068   0.84980   0.79942   1.000
    C5      C    0.33906   0.85057   0.47967   1.000
    C6      C    0.25067   0.83405   0.13970   1.000
    C7      C    0.33903   0.34973   0.29943   1.000
    Y8      Y    0.99920   0.50046   0.79304   1.000
    C9      C    0.16089   0.35047   0.97960   1.000
    C10     C    0.74888   0.66679   0.63989   1.000
    C11     C    0.83880   0.15037   0.79991   1.000
    C12     C    0.66069   0.15112   0.48005   1.000
    C13     C    0.75072   0.16672   0.13979   1.000
    C14     C    0.66078   0.65030   0.29983   1.000
    C15     C    0.83917   0.65108   0.98012   1.000
    O16     O    0.33459   0.40152   0.58406   1.000
    O17     O    0.16332   0.40135   0.69526   1.000
    O18     O    0.14750   0.91981   0.87314   1.000
    O19     O    0.13289   0.71208   0.79083   1.000
    O20     O    0.36634   0.71265   0.48774   1.000
    O21     O    0.35296   0.92130   0.40628   1.000
    O22     O    0.16526   0.90145   0.08400   1.000
    O23     O    0.33625   0.90120   0.19542   1.000
    O24     O    0.36689   0.21203   0.29084   1.000
    O25     O    0.35209   0.41971   0.37317   1.000
    O26     O    0.14715   0.42116   0.90617   1.000
    O27     O    0.13342   0.21261   0.98769   1.000
    O28     O    0.66310   0.59955   0.58432   1.000
    O29     O    0.83451   0.59949   0.69552   1.000
    O30     O    0.85251   0.07971   0.87335   1.000
    O31     O    0.86635   0.28822   0.79176   1.000
    O32     O    0.63285   0.28882   0.48866   1.000
    O33     O    0.64766   0.08124   0.40628   1.000
    O34     O    0.83669   0.09957   0.08433   1.000
    O35     O    0.66505   0.09934   0.19534   1.000
    O36     O    0.63347   0.78818   0.29172   1.000
    O37     O    0.64693   0.57960   0.37324   1.000
    O38     O    0.85245   0.58117   0.90638   1.000
    O39     O    0.86690   0.78881   0.98874   1.000
loop_
    _geom_bond_atom_site_label_1
    _geom_bond_atom_site_label_2
    _geom_bond_distance
    _geom_bond_site_symmetry_2
    _ccdc_geom_bond_type
    O22    C6        1.27127      .   S
    O22    Y1        2.23228  1_564   S
    O34    C13       1.27114      .   S
    O34    Y1        2.23261  1_654   S
    C6     O23       1.27116      .   S
    C13    O35       1.27133      .   S
    O35    Y0        2.23262      .   S
    O23    Y0        2.23265  1_565   S
    O24    Y0        2.23791      .   S
    O24    C7        1.27092      .   S
    O36    Y0        2.23821  1_565   S
    O36    C14       1.27090      .   S
    Y0     O21       2.24252  1_545   S
    Y0     O33       2.24289      .   S
    C7     O25       1.27176      .   S
    C14    O37       1.27164      .   S
    O25    Y2        2.24304      .   S
    O37    Y2        2.24314      .   S
    O21    C5        1.27159      .   S
    O33    C12       1.27169      .   S
    C5     O20       1.27115      .   S
    C12    O32       1.27093      .   S
    Y2     O20       2.23801      .   S
    Y2     O32       2.23759      .   S
    Y2     O16       2.23232      .   S
    Y2     O28       2.23239      .   S
    O16    C3        1.27129      .   S
    O28    C10       1.27115      .   S
    C3     O17       1.27114      .   S
    C10    O29       1.27129      .   S
    O17    Y8        2.23279  1_455   S
    O29    Y8        2.23263      .   S
    O19    Y8        2.23744  1_455   S
    O19    C4        1.27096      .   S
    O31    Y8        2.23825      .   S
    O31    C11       1.27108      .   S
    Y8     O26       2.24230  1_655   S
    Y8     O38       2.24329      .   S
    C4     O18       1.27175      .   S
    C11    O30       1.27168      .   S
    O18    Y1        2.24351  1_565   S
    O30    Y1        2.24286  1_655   S
    O26    C9        1.27163      .   S
    O38    C15       1.27167      .   S
    C9     O27       1.27101      .   S
    C15    O39       1.27097      .   S
    Y1     O27       2.23785      .   S
    Y1     O39       2.23726  1_445   S
